12
Frame=0 idx=002576 GeodesicLength=0.0 rxn_smarts="[N:1]1([H:7])[C@@:2]2([H:8])[C@:3]1([H:9])[C@@:4]1([H:10])[N:5]([H:11])[C@@:6]21[H:12]>>[N:1]1([H:7])[C:2]([H:8])=[C:6]([H:12])[N:5]([H:11])[C:4]([H:10])=[C:3]1[H:9]"
N       -0.86655373      -1.19226397      -0.43755290
C        0.13778598      -0.34581384      -0.92363836
C       -1.33751295       0.05780569       0.18689160
C       -0.16673557       0.78732127       0.58647375
N        0.93544459       0.18562732       1.20674605
C        1.33709606      -0.04837429      -0.19252361
H       -0.52164977      -1.86734290       0.23818052
H       -0.00661226       0.01389878      -1.94030626
H       -2.14520321       0.56794769      -0.31839874
H       -0.12006589       1.87086312       0.49935476
H        0.69163240      -0.66975254       1.69683701
H        2.06237439       0.64008363      -0.60206382
12
Frame=1 idx=002576 GeodesicLength=0.06740854134829792 rxn_smarts="[N:1]1([H:7])[C@@:2]2([H:8])[C@:3]1([H:9])[C@@:4]1([H:10])[N:5]([H:11])[C@@:6]21[H:12]>>[N:1]1([H:7])[C:2]([H:8])=[C:6]([H:12])[N:5]([H:11])[C:4]([H:10])=[C:3]1[H:9]"
N       -0.86791579      -1.18804250      -0.43765715
C        0.13937151      -0.35043530      -0.93325286
C       -1.32916827       0.06408393       0.17774285
C       -0.16730024       0.79720251       0.59441412
N        0.93940181       0.19179685       1.20508734
C        1.32898111      -0.03704079      -0.19398854
H       -0.54124775      -1.88112964       0.22670050
H        0.01050162      -0.01980300      -1.96121594
H       -2.15149194       0.56867346      -0.30847127
H       -0.13426017       1.88265071       0.53559693
H        0.70452491      -0.66226704       1.70073347
H        2.06860320       0.63431081      -0.60568946
12
Frame=2 idx=002576 GeodesicLength=0.13475246420484666 rxn_smarts="[N:1]1([H:7])[C@@:2]2([H:8])[C@:3]1([H:9])[C@@:4]1([H:10])[N:5]([H:11])[C@@:6]21[H:12]>>[N:1]1([H:7])[C:2]([H:8])=[C:6]([H:12])[N:5]([H:11])[C:4]([H:10])=[C:3]1[H:9]"
N       -0.86922522      -1.18349040      -0.43779737
C        0.14114526      -0.35517789      -0.94306411
C       -1.32059284       0.07093972       0.16807451
C       -0.16796899       0.80732409       0.60255839
N        0.94352129       0.19835312       1.20310379
C        1.32065487      -0.02494602      -0.19588003
H       -0.56212972      -1.89457697       0.21462998
H        0.02870072      -0.05558893      -1.98182608
H       -2.15775571       0.56933109      -0.29811002
H       -0.14924809       1.89382821       0.57360387
H        0.71805929      -0.65444232       1.70421313
H        2.07483913       0.62844631      -0.60950608
12
Frame=3 idx=002576 GeodesicLength=0.20199201493586638 rxn_smarts="[N:1]1([H:7])[C@@:2]2([H:8])[C@:3]1([H:9])[C@@:4]1([H:10])[N:5]([H:11])[C@@:6]21[H:12]>>[N:1]1([H:7])[C:2]([H:8])=[C:6]([H:12])[N:5]([H:11])[C:4]([H:10])=[C:3]1[H:9]"
N       -0.87047815      -1.17856951      -0.43798615
C        0.14313192      -0.36003973      -0.95308250
C       -1.31176924       0.07842899       0.15782665
C       -0.16875226       0.81769582       0.61091386
N        0.94780620       0.20531961       1.20076104
C        1.31210620      -0.01203082      -0.19823226
H       -0.58437067      -1.90758469       0.20191214
H        0.04806332      -0.09357827      -2.00198317
H       -2.16401255       0.56988862      -0.28723073
H       -0.16507197       1.90425333       0.61339512
H        0.73226681      -0.64626264       1.70721793
H        2.08108038       0.62247929      -0.61351191
12
Frame=4 idx=002576 GeodesicLength=0.2691314800014556 rxn_smarts="[N:1]1([H:7])[C@@:2]2([H:8])[C@:3]1([H:9])[C@@:4]1([H:10])[N:5]([H:11])[C@@:6]21[H:12]>>[N:1]1([H:7])[C:2]([H:8])=[C:6]([H:12])[N:5]([H:11])[C:4]([H:10])=[C:3]1[H:9]"
N       -0.87166502      -1.17324377      -0.43821662
C        0.14535022      -0.36503313      -0.96331738
C       -1.30268887       0.08660515       0.14693980
C       -0.16967103       0.82832750       0.61947800
N        0.95227142       0.21275092       1.19800407
C        1.30331347       0.00179215      -0.20110245
H       -0.60811433      -1.92008008       0.18849032
H        0.06870122      -0.13389958      -2.02150740
H       -2.17024177       0.57031858      -0.27579367
H       -0.18180822       1.91376602       0.65508693
H        0.74721441      -0.63768232       1.70967401
H        2.08733851       0.61637855      -0.61773561
12
Frame=5 idx=002576 GeodesicLength=0.33615318484730167 rxn_smarts="[N:1]1([H:7])[C@@:2]2([H:8])[C@:3]1([H:9])[C@@:4]1([H:10])[N:5]([H:11])[C@@:6]21[H:12]>>[N:1]1([H:7])[C:2]([H:8])=[C:6]([H:12])[N:5]([H:11])[C:4]([H:10])=[C:3]1[H:9]"
N       -0.87277970      -1.16746560      -0.43849697
C        0.14782873      -0.37016203      -0.97377865
C       -1.29333577       0.09553650       0.13533818
C       -0.17074426       0.83923037       0.62825037
N        0.95692562       0.22069610       1.19477903
C        1.29425754       0.01660929      -0.20454423
H       -0.63348462      -1.93195002       0.17428455
H        0.09072677      -0.17669633      -2.04019001
H       -2.17644639       0.57057611      -0.26370131
H       -0.19952688       1.92218024       0.69874467
H        0.76295728      -0.62866030       1.71150293
H        2.09362168       0.61010566      -0.62218856
12
Frame=6 idx=002576 GeodesicLength=0.4030400658444703 rxn_smarts="[N:1]1([H:7])[C@@:2]2([H:8])[C@:3]1([H:9])[C@@:4]1([H:10])[N:5]([H:11])[C@@:6]21[H:12]>>[N:1]1([H:7])[C:2]([H:8])=[C:6]([H:12])[N:5]([H:11])[C:4]([H:10])=[C:3]1[H:9]"
N       -0.87381356      -1.16118248      -0.43883458
C        0.15059941      -0.37543227      -0.98447559
C       -1.28369459       0.10529750       0.12293626
C       -0.17199661       0.85041536       0.63722635
N        0.96177716       0.22921592       1.19102270
C        1.28491509       0.03251834      -0.20861970
H       -0.66062514      -1.94306784       0.15919843
H        0.11426319      -0.22210412      -2.05778090
H       -2.18262410       0.57059873      -0.25083525
H       -0.21830197       1.92928189       0.74442592
H        0.77955867      -0.61914273       1.71261646
H        2.09994244       0.60360170      -0.62688008
12
Frame=7 idx=002576 GeodesicLength=0.4697739508181962 rxn_smarts="[N:1]1([H:7])[C@@:2]2([H:8])[C@:3]1([H:9])[C@@:4]1([H:10])[N:5]([H:11])[C@@:6]21[H:12]>>[N:1]1([H:7])[C:2]([H:8])=[C:6]([H:12])[N:5]([H:11])[C:4]([H:10])=[C:3]1[H:9]"
N       -0.87475711      -1.15433534      -0.43923550
C        0.15369798      -0.38085149      -0.99541515
C       -1.27375049       0.11597190       0.10963739
C       -0.17345737       0.86189224       0.64639759
N        0.96683484       0.23838209       1.18666170
C        1.27525896       0.04962893      -0.21340069
H       -0.68969875      -1.95328610       0.14311558
H        0.13944467      -0.27025674      -2.07398346
H       -2.18876070       0.57030625      -0.23705519
H       -0.23821455       1.93482346       0.79218035
H        0.79709099      -0.60906370       1.71291438
H        2.10631153       0.59678849      -0.63181702
12
Frame=8 idx=002576 GeodesicLength=0.536334596359527 rxn_smarts="[N:1]1([H:7])[C@@:2]2([H:8])[C@:3]1([H:9])[C@@:4]1([H:10])[N:5]([H:11])[C@@:6]21[H:12]>>[N:1]1([H:7])[C:2]([H:8])=[C:6]([H:12])[N:5]([H:11])[C:4]([H:10])=[C:3]1[H:9]"
N       -0.87559717      -1.14685961      -0.43970474
C        0.15716851      -0.38643224      -1.00660008
C       -1.26348898       0.12765109       0.09533042
C       -0.17516266       0.87366954       0.65574782
N        0.97210560       0.24828239       1.18161198
C        1.26525911       0.06806215      -0.21896758
H       -0.72088794      -1.96243592       0.12588918
H        0.16640488      -0.32126254      -2.08844411
H       -2.19483031       0.56958848      -0.22218449
H       -0.25934757       1.93852135       0.84203150
H        0.81563280      -0.59833662       1.71228753
H        2.11274375       0.58955194      -0.63699744
12
Frame=9 idx=002576 GeodesicLength=0.6026965932606138 rxn_smarts="[N:1]1([H:7])[C@@:2]2([H:8])[C@:3]1([H:9])[C@@:4]1([H:10])[N:5]([H:11])[C@@:6]21[H:12]>>[N:1]1([H:7])[C:2]([H:8])=[C:6]([H:12])[N:5]([H:11])[C:4]([H:10])=[C:3]1[H:9]"
N       -0.87631953      -1.13868485      -0.44024326
C        0.16105952      -0.39218992      -1.01802524
C       -1.25289827       0.14043423       0.07989465
C       -0.17715517       0.88575144       0.66525572
N        0.97759513       0.25901781       1.17577865
C        1.25488135       0.08794842      -0.22541062
H       -0.75439206      -1.97031902       0.10733714
H        0.19527699      -0.37520738      -2.10074741
H       -2.20077816       0.56830661      -0.20601554
H       -0.28178417       1.94005149       0.89396805
H        0.83527195      -0.58685711       1.71061603
H        2.11924242       0.58174828      -0.64240817
12
Frame=10 idx=002576 GeodesicLength=0.6688315767827606 rxn_smarts="[N:1]1([H:7])[C@@:2]2([H:8])[C@:3]1([H:9])[C@@:4]1([H:10])[N:5]([H:11])[C@@:6]21[H:12]>>[N:1]1([H:7])[C:2]([H:8])=[C:6]([H:12])[N:5]([H:11])[C:4]([H:10])=[C:3]1[H:9]"
N       -0.87690805      -1.12974063      -0.44083753
C        0.16542227      -0.39814997      -1.02967052
C       -1.24197214       0.15442135       0.06320831
C       -0.17948397       0.89813387       0.67489328
N        0.98331011       0.27070548       1.16905428
C        1.24408719       0.10942346      -0.23283154
H       -0.79043045      -1.97671022       0.08723622
H        0.22617794      -0.43213842      -2.11040584
H       -2.20649179       0.56630130      -0.18833793
H       -0.30560628       1.93904156       0.94794650
H        0.85611131      -0.57449615       1.70777200
H        2.12578386       0.57320838      -0.64802723
12
Frame=11 idx=002576 GeodesicLength=0.7347125759679767 rxn_smarts="[N:1]1([H:7])[C@@:2]2([H:8])[C@:3]1([H:9])[C@@:4]1([H:10])[N:5]([H:11])[C@@:6]21[H:12]>>[N:1]1([H:7])[C:2]([H:8])=[C:6]([H:12])[N:5]([H:11])[C:4]([H:10])=[C:3]1[H:9]"
N       -0.87735420      -1.11996392      -0.44143644
C        0.17029462      -0.40435670      -1.04148808
C       -1.23071462       0.16970425       0.04517767
C       -0.18219569       0.91079600       0.68463257
N        0.98927073       0.28347227       1.16131387
C        1.23283060       0.13261625      -0.24135109
H       -0.82924570      -1.98135554       0.06532791
H        0.25920846      -0.49209974      -2.11684353
H       -2.21174104       0.56345146      -0.16904294
H       -0.33090604       1.93503968       1.00394341
H        0.87829247      -0.56110489       1.70361518
H        2.13226042       0.56380088      -0.65384853
12
Frame=12 idx=002576 GeodesicLength=0.8003001969435187 rxn_smarts="[N:1]1([H:7])[C@@:2]2([H:8])[C@:3]1([H:9])[C@@:4]1([H:10])[N:5]([H:11])[C@@:6]21[H:12]>>[N:1]1([H:7])[C:2]([H:8])=[C:6]([H:12])[N:5]([H:11])[C:4]([H:10])=[C:3]1[H:9]"
N       -0.87764302      -1.10932623      -0.44195447
C        0.17569860      -0.41085823      -1.05338759
C       -1.21914956       0.18631057       0.02579129
C       -0.18534714       0.92368279       0.69446815
N        0.99549610       0.29744983       1.15244874
C        1.22105927       0.15761798      -0.25107068
H       -0.87105410      -1.98400480       0.04126301
H        0.29436573      -0.55497690      -2.11940013
H       -2.21620051       0.55964179      -0.14809681
H       -0.35769469       1.92757872       1.06174198
H        0.90197429      -0.54651030       1.69803514
H        2.13849505       0.55339478      -0.65983862
12
Frame=13 idx=002576 GeodesicLength=0.8655053188906847 rxn_smarts="[N:1]1([H:7])[C@@:2]2([H:8])[C@:3]1([H:9])[C@@:4]1([H:10])[N:5]([H:11])[C@@:6]21[H:12]>>[N:1]1([H:7])[C:2]([H:8])=[C:6]([H:12])[N:5]([H:11])[C:4]([H:10])=[C:3]1[H:9]"
N       -0.87769060      -1.09791235      -0.44226904
C        0.18168244      -0.41772766      -1.06519673
C       -1.20731713       0.20409360       0.00517156
C       -0.18902378       0.93667284       0.70441129
N        1.00196502       0.31276322       1.14243416
C        1.20874063       0.18440153      -0.26198309
H       -0.91596562      -1.98449172       0.01454733
H        0.33129142      -0.62007205      -2.11744917
H       -2.21949197       0.55464181      -0.12544740
H       -0.38573842       1.91638892       1.12054957
H        0.92725386      -0.53049075       1.69106070
H        2.14429415       0.54173260      -0.66582918
12
Frame=14 idx=002576 GeodesicLength=0.9303664159123488 rxn_smarts="[N:1]1([H:7])[C@@:2]2([H:8])[C@:3]1([H:9])[C@@:4]1([H:10])[N:5]([H:11])[C@@:6]21[H:12]>>[N:1]1([H:7])[C:2]([H:8])=[C:6]([H:12])[N:5]([H:11])[C:4]([H:10])=[C:3]1[H:9]"
N       -0.87744048      -1.08597825      -0.44199000
C        0.18820294      -0.42520811      -1.07661418
C       -1.19527218       0.22272492      -0.01624863
C       -0.19320509       0.94958429       0.71452791
N        1.00880870       0.32952815       1.13123015
C        1.19585875       0.21280503      -0.27412307
H       -0.96425842      -1.98274280      -0.01524715
H        0.36952168      -0.68695776      -2.11035375
H       -2.22085699       0.54887382      -0.10222663
H       -0.41488902       1.90092900       1.18024973
H        0.95446477      -0.51278459       1.68276436
H        2.14906535       0.52922629      -0.67196874
12
Frame=15 idx=002576 GeodesicLength=0.9950528427898391 rxn_smarts="[N:1]1([H:7])[C@@:2]2([H:8])[C@:3]1([H:9])[C@@:4]1([H:10])[N:5]([H:11])[C@@:6]21[H:12]>>[N:1]1([H:7])[C:2]([H:8])=[C:6]([H:12])[N:5]([H:11])[C:4]([H:10])=[C:3]1[H:9]"
N       -0.87707722      -1.07372472      -0.44038387
C        0.19478525      -0.43353782      -1.08727687
C       -1.18300940       0.24188285      -0.03751731
C       -0.19755078       0.96227431       0.72496083
N        1.01644633       0.34774863       1.11857879
C        1.18223873       0.24245286      -0.28772495
H       -1.01637092      -1.97851177      -0.04849779
H        0.40946293      -0.75684994      -2.09668356
H       -2.21925490       0.54420403      -0.08137755
H       -0.44548070       1.87957265       1.24228395
H        0.98444194      -0.49328596       1.67289439
H        2.15136873       0.51777488      -0.67925606
12
Frame=16 idx=002576 GeodesicLength=1.0593787243433281 rxn_smarts="[N:1]1([H:7])[C@@:2]2([H:8])[C@:3]1([H:9])[C@@:4]1([H:10])[N:5]([H:11])[C@@:6]21[H:12]>>[N:1]1([H:7])[C:2]([H:8])=[C:6]([H:12])[N:5]([H:11])[C:4]([H:10])=[C:3]1[H:9]"
N       -0.87620238      -1.06184797      -0.43726106
C        0.20171593      -0.44300061      -1.09675185
C       -1.17050677       0.26064409      -0.05811099
C       -0.20211785       0.97439531       0.73576467
N        1.02469678       0.36738211       1.10499063
C        1.16810842       0.27248894      -0.30212896
H       -1.07224430      -1.97180812      -0.08639963
H        0.44953161      -0.82721823      -2.07659531
H       -2.21504443       0.53986924      -0.06229295
H       -0.47594703       1.85331672       1.30368673
H        1.01678570      -0.47164958       1.66231158
H        2.15122432       0.50742810      -0.68721286
