12
Frame=0 idx=003628 GeodesicLength=0.0 rxn_smarts="[C:1](#[C:2][C:3]([C@@:4]1([H:10])[C:5]([H:11])([H:12])[O:6]1)([H:8])[H:9])[H:7]>>[C:1]1([H:7])=[C-:2][C:3]([H:8])([H:9])[C:4]([H:10])=[O+:6][C:5]1([H:11])[H:12]"
C        1.14567329       0.46002845      -0.28046154
C        1.48994724      -0.79194969      -0.00824697
C        0.13421043      -1.34977216       0.38102140
C       -0.47825731      -0.01596533       0.71806964
C       -0.59116848       0.89155441      -0.70584409
O       -1.64360507       0.44852456       0.18663078
H        1.63369135       1.41890373      -0.38481779
H        0.14490945      -2.02839286       1.23595900
H       -0.38265085      -1.84752152      -0.44321611
H       -0.22214043       0.41595328       1.68161973
H       -0.69794403       0.42543763      -1.67889050
H       -0.53266554       1.97319950      -0.70182350
12
Frame=1 idx=003628 GeodesicLength=0.09479850776674525 rxn_smarts="[C:1](#[C:2][C:3]([C@@:4]1([H:10])[C:5]([H:11])([H:12])[O:6]1)([H:8])[H:9])[H:7]>>[C:1]1([H:7])=[C-:2][C:3]([H:8])([H:9])[C:4]([H:10])=[O+:6][C:5]1([H:11])[H:12]"
C        1.16938357       0.46365543      -0.28759591
C        1.48753800      -0.78969311      -0.01078466
C        0.13168749      -1.34698321       0.38417211
C       -0.48789592      -0.02058617       0.72522384
C       -0.59489650       0.89286675      -0.70417575
O       -1.64642418       0.44667481       0.18519553
H        1.66878076       1.41570071      -0.39503489
H        0.14734630      -2.02751485       1.23705196
H       -0.37914520      -1.84296957      -0.44473764
H       -0.24120786       0.40772298       1.69289812
H       -0.70583915       0.42563725      -1.67690040
H       -0.54932730       1.97548899      -0.70531231
12
Frame=2 idx=003628 GeodesicLength=0.1896035677464173 rxn_smarts="[C:1](#[C:2][C:3]([C@@:4]1([H:10])[C:5]([H:11])([H:12])[O:6]1)([H:8])[H:9])[H:7]>>[C:1]1([H:7])=[C-:2][C:3]([H:8])([H:9])[C:4]([H:10])=[O+:6][C:5]1([H:11])[H:12]"
C        1.19360105       0.46716832      -0.29546400
C        1.48516556      -0.78686659      -0.01282587
C        0.12925282      -1.34397692       0.38736197
C       -0.49803992      -0.02538776       0.73253975
C       -0.59878547       0.89430373      -0.70225860
O       -1.64951890       0.44470659       0.18374753
H        1.70520969       1.41175780      -0.40592361
H        0.14988123      -2.02652332       1.23807151
H       -0.37532452      -1.83822954      -0.44627300
H       -0.26107245       0.39917943       1.70434471
H       -0.71386785       0.42612715      -1.67473932
H       -0.56650124       1.97774111      -0.70858107
12
Frame=3 idx=003628 GeodesicLength=0.28441381013844247 rxn_smarts="[C:1](#[C:2][C:3]([C@@:4]1([H:10])[C:5]([H:11])([H:12])[O:6]1)([H:8])[H:9])[H:7]>>[C:1]1([H:7])=[C-:2][C:3]([H:8])([H:9])[C:4]([H:10])=[O+:6][C:5]1([H:11])[H:12]"
C        1.21834846       0.47055571      -0.30413279
C        1.48283646      -0.78341466      -0.01433169
C        0.12691471      -1.34073316       0.39060073
C       -0.50872248      -0.03038621       0.74001894
C       -0.60284333       0.89588057      -0.70007066
O       -1.65290700       0.44260933       0.18227924
H        1.74303448       1.40700015      -0.41754138
H        0.15252710      -2.02540253       1.23902204
H       -0.37115655      -1.83328342      -0.44781975
H       -0.28180628       0.39028096       1.71597098
H       -0.72202034       0.42693406      -1.67239492
H       -0.58420524       1.97995920      -0.71160073
12
Frame=4 idx=003628 GeodesicLength=0.37922786197262404 rxn_smarts="[C:1](#[C:2][C:3]([C@@:4]1([H:10])[C:5]([H:11])([H:12])[O:6]1)([H:8])[H:9])[H:7]>>[C:1]1([H:7])=[C-:2][C:3]([H:8])([H:9])[C:4]([H:10])=[O+:6][C:5]1([H:11])[H:12]"
C        1.24364987       0.47380363      -0.31367443
C        1.48055681      -0.77927270      -0.01525725
C        0.12468269      -1.33722933       0.39389980
C       -0.51998083      -0.03560031       0.74766268
C       -0.60707800       0.89761456      -0.69758676
O       -1.65660803       0.44037083       0.18078099
H        1.78231196       1.40134206      -0.42995764
H        0.15529902      -2.02413469       1.23990896
H       -0.36660363      -1.82811081      -0.44937512
H       -0.30349106       0.38097983       1.72778831
H       -0.73028303       0.42808892      -1.66985343
H       -0.60245577       1.98214802      -0.71433611
12
Frame=5 idx=003628 GeodesicLength=0.4740437200224909 rxn_smarts="[C:1](#[C:2][C:3]([C@@:4]1([H:10])[C:5]([H:11])([H:12])[O:6]1)([H:8])[H:9])[H:7]>>[C:1]1([H:7])=[C-:2][C:3]([H:8])([H:9])[C:4]([H:10])=[O+:6][C:5]1([H:11])[H:12]"
C        1.26953081       0.47689475      -0.32416459
C        1.47833212      -0.77436502      -0.01554975
C        0.12256766      -1.33343992       0.39727254
C       -0.53185752      -0.04105240       0.75547163
C       -0.61149716       0.89952537      -0.69477733
O       -1.66064372       0.43797703       0.17924018
H        1.82309920       1.39468603      -0.44325986
H        0.15821460      -2.02269962       1.24073846
H       -0.36162156      -1.82268810      -0.45093587
H       -0.32622041       0.37122039       1.73980739
H       -0.73863700       0.42962782      -1.66709882
H       -0.62126702       1.98431368      -0.71674399
12
Frame=6 idx=003628 GeodesicLength=0.5688597286963781 rxn_smarts="[C:1](#[C:2][C:3]([C@@:4]1([H:10])[C:5]([H:11])([H:12])[O:6]1)([H:8])[H:9])[H:7]>>[C:1]1([H:7])=[C-:2][C:3]([H:8])([H:9])[C:4]([H:10])=[O+:6][C:5]1([H:11])[H:12]"
C        1.29601860       0.47980883      -0.33568484
C        1.47616548      -0.76860379      -0.01515428
C        0.12058235      -1.32933646       0.40073460
C       -0.54440017      -0.04676862       0.76344535
C       -0.61610835       0.90163541      -0.69160983
O       -1.66503739       0.43541227       0.17764103
H        1.86545102       1.38691985      -0.45754316
H        0.16129754      -2.02107334       1.24151974
H       -0.35616159      -1.81698997      -0.45249623
H       -0.35009866       0.36093895       1.75203760
H       -0.74705779       0.43159150      -1.66411442
H       -0.64065104       1.98646536      -0.71877556
12
Frame=7 idx=003628 GeodesicLength=0.663672894485134 rxn_smarts="[C:1](#[C:2][C:3]([C@@:4]1([H:10])[C:5]([H:11])([H:12])[O:6]1)([H:8])[H:9])[H:7]>>[C:1]1([H:7])=[C-:2][C:3]([H:8])([H:9])[C:4]([H:10])=[O+:6][C:5]1([H:11])[H:12]"
C        1.32314267       0.48251906      -0.34831815
C        1.47405977      -0.76188470      -0.01400039
C        0.11874148      -1.32488641       0.40430455
C       -0.55766448      -0.05278090       0.77158202
C       -0.62091814       0.90397040      -0.68804447
O       -1.66981552       0.43265804       0.17596283
H        1.90942000       1.37791566      -0.47293691
H        0.16457361      -2.01922879       1.24226263
H       -0.35016365      -1.81098584      -0.45405064
H       -0.37524838       0.35005975       1.76448625
H       -0.75551230       0.43402940      -1.66087966
H       -0.66061508       1.98861434      -0.72036806
12
Frame=8 idx=003628 GeodesicLength=0.7584805778722323 rxn_smarts="[C:1](#[C:2][C:3]([C@@:4]1([H:10])[C:5]([H:11])([H:12])[O:6]1)([H:8])[H:9])[H:7]>>[C:1]1([H:7])=[C-:2][C:3]([H:8])([H:9])[C:4]([H:10])=[O+:6][C:5]1([H:11])[H:12]"
C        1.35093461       0.48499146      -0.36214686
C        1.47201829      -0.75409033      -0.01199762
C        0.11706306      -1.32005967       0.40800678
C       -0.57171592      -0.05912783       0.77988040
C       -0.62593249       0.90656443      -0.68403623
O       -1.67500883       0.42969740       0.17417730
H        1.95505312       1.36753655      -0.48961487
H        0.16807422      -2.01714548       1.24298428
H       -0.34355448      -1.80464850      -0.45559605
H       -0.40181413       0.33849424       1.77716529
H       -0.76395770       0.43700397      -1.65737753
H       -0.68115976       1.99078375      -0.72144489
12
Frame=9 idx=003628 GeodesicLength=0.8532775438410587 rxn_smarts="[C:1](#[C:2][C:3]([C@@:4]1([H:10])[C:5]([H:11])([H:12])[O:6]1)([H:8])[H:9])[H:7]>>[C:1]1([H:7])=[C-:2][C:3]([H:8])([H:9])[C:4]([H:10])=[O+:6][C:5]1([H:11])[H:12]"
C        1.37943013       0.48718993      -0.37727268
C        1.47002424      -0.74506308      -0.00911029
C        0.11556533      -1.31479411       0.41185991
C       -0.58662131      -0.06585309       0.78832423
C       -0.63115638       0.90943783      -0.67953423
O       -1.68064266       0.42649422       0.17225835
H        2.00238912       1.35557899      -0.50766852
H        0.17185189      -2.01474634       1.24369417
H       -0.33627244      -1.79792271      -0.45710190
H       -0.42993811       0.32614083       1.79005104
H       -0.77234277       0.44056529      -1.65356897
H       -0.70228705       1.99297225      -0.72193111
12
Frame=10 idx=003628 GeodesicLength=0.948062541727184 rxn_smarts="[C:1](#[C:2][C:3]([C@@:4]1([H:10])[C:5]([H:11])([H:12])[O:6]1)([H:8])[H:9])[H:7]>>[C:1]1([H:7])=[C-:2][C:3]([H:8])([H:9])[C:4]([H:10])=[O+:6][C:5]1([H:11])[H:12]"
C        1.40866519       0.48906411      -0.39375027
C        1.46808516      -0.73463513      -0.00516734
C        0.11427586      -1.30906050       0.41590465
C       -0.60247944      -0.07301909       0.79691092
C       -0.63659321       0.91264773      -0.67446976
O       -1.68676263       0.42302404       0.17015028
H        2.05147203       1.34186039      -0.52745880
H        0.17594374      -2.01202363       1.24442429
H       -0.32819318      -1.79077928      -0.45857634
H       -0.45984243       0.31286554       1.80316330
H       -0.78058870       0.44482165      -1.64943836
H       -0.72398239       1.99523418      -0.72169258
12
Frame=11 idx=003628 GeodesicLength=1.0428334006066775 rxn_smarts="[C:1](#[C:2][C:3]([C@@:4]1([H:10])[C:5]([H:11])([H:12])[O:6]1)([H:8])[H:9])[H:7]>>[C:1]1([H:7])=[C-:2][C:3]([H:8])([H:9])[C:4]([H:10])=[O+:6][C:5]1([H:11])[H:12]"
C        1.43868097       0.49055764      -0.41164372
C        1.46618824      -0.72258341      -0.00003314
C        0.11322464      -1.30279539       0.42017962
C       -0.61939813      -0.08069988       0.80562001
C       -0.64224502       0.91624187      -0.66876151
O       -1.69341186       0.41924057       0.16779344
H        2.10233937       1.32611541      -0.54930768
H        0.18041025      -2.00891254       1.24520157
H       -0.31919035      -1.78315707      -0.46000097
H       -0.49176496       0.29850734       1.81648316
H       -0.78860094       0.44988046      -1.64494562
H       -0.74623222       1.99760500      -0.72058518
12
Frame=12 idx=003628 GeodesicLength=1.1375897768567045 rxn_smarts="[C:1](#[C:2][C:3]([C@@:4]1([H:10])[C:5]([H:11])([H:12])[O:6]1)([H:8])[H:9])[H:7]>>[C:1]1([H:7])=[C-:2][C:3]([H:8])([H:9])[C:4]([H:10])=[O+:6][C:5]1([H:11])[H:12]"
C        1.46952280       0.49159424      -0.43103116
C        1.46430967      -0.70864771       0.00643094
C        0.11244861      -1.29592687       0.42473067
C       -0.63749657      -0.08898266       0.81442097
C       -0.64811593       0.92027581      -0.66232191
O       -1.70063561       0.41509424       0.16511676
H        2.15501226       1.30803824      -0.57354059
H        0.18533597      -2.00533173       1.24606716
H       -0.30912361      -1.77499271      -0.46134670
H       -0.52596509       0.28288171       1.82997614
H       -0.79627415       0.45586531      -1.64005192
H       -0.76901834       2.00013214      -0.71845035
12
Frame=13 idx=003628 GeodesicLength=1.2323234101296117 rxn_smarts="[C:1](#[C:2][C:3]([C@@:4]1([H:10])[C:5]([H:11])([H:12])[O:6]1)([H:8])[H:9])[H:7]>>[C:1]1([H:7])=[C-:2][C:3]([H:8])([H:9])[C:4]([H:10])=[O+:6][C:5]1([H:11])[H:12]"
C        1.50123376       0.49208956      -0.45190422
C        1.46243031      -0.69249329       0.01446659
C        0.11200033      -1.28837228       0.42962064
C       -0.65694052      -0.09798570       0.82327062
C       -0.65421352       0.92482864      -0.65502549
O       -1.70850131       0.41051755       0.16200895
H        2.20953454       1.28722925      -0.60076106
H        0.19081417      -2.00119958       1.24707116
H       -0.29777581      -1.76620599      -0.46259474
H       -0.56281558       0.26574196       1.84359722
H       -0.80345340       0.46295839      -1.63470584
H       -0.79231296       2.00289150      -0.71504382
12
Frame=14 idx=003628 GeodesicLength=1.3270329417008264 rxn_smarts="[C:1](#[C:2][C:3]([C@@:4]1([H:10])[C:5]([H:11])([H:12])[O:6]1)([H:8])[H:9])[H:7]>>[C:1]1([H:7])=[C-:2][C:3]([H:8])([H:9])[C:4]([H:10])=[O+:6][C:5]1([H:11])[H:12]"
C        1.53386244       0.49190723      -0.47439179
C        1.46047816      -0.67375206       0.02416576
C        0.11193623      -1.28002313       0.43490786
C       -0.67786665      -0.10782938       0.83209889
C       -0.66055647       0.92996796      -0.64677381
O       -1.71705100       0.40544847       0.15837695
H        2.26589085       1.26325333      -0.63120324
H        0.19701294      -1.99635849       1.24829268
H       -0.28498588      -1.75672195      -0.46367108
H       -0.60260185       0.24684556       1.85724351
H       -0.81001822       0.47131381      -1.62886397
H       -0.81610057       2.00594866      -0.71018175
12
Frame=15 idx=003628 GeodesicLength=1.421712698888803 rxn_smarts="[C:1](#[C:2][C:3]([C@@:4]1([H:10])[C:5]([H:11])([H:12])[O:6]1)([H:8])[H:9])[H:7]>>[C:1]1([H:7])=[C-:2][C:3]([H:8])([H:9])[C:4]([H:10])=[O+:6][C:5]1([H:11])[H:12]"
C        1.56745203       0.49090803      -0.49848218
C        1.45838253      -0.65194228       0.03573111
C        0.11234377      -1.27074622       0.44067206
C       -0.70046899      -0.11867585       0.84080703
C       -0.66718331       0.93579861      -0.63741832
O       -1.72636162       0.39979612       0.15406573
H        2.32411338       1.23548796      -0.66544871
H        0.20414001      -1.99062816       1.24982868
H       -0.27048721      -1.74644272      -0.46450802
H       -0.64576031       0.22586011       1.87078366
H       -0.81578892       0.48117043      -1.62246537
H       -0.84038137       2.00941397      -0.70356566
12
Frame=16 idx=003628 GeodesicLength=1.5163598843661066 rxn_smarts="[C:1](#[C:2][C:3]([C@@:4]1([H:10])[C:5]([H:11])([H:12])[O:6]1)([H:8])[H:9])[H:7]>>[C:1]1([H:7])=[C-:2][C:3]([H:8])([H:9])[C:4]([H:10])=[O+:6][C:5]1([H:11])[H:12]"
C        1.60204435       0.48888311      -0.52427022
C        1.45600691      -0.62652807       0.04918009
C        0.11332508      -1.26036810       0.44698565
C       -0.72490863      -0.13069512       0.84925212
C       -0.67416043       0.94242040      -0.62682895
O       -1.73648703       0.39347075       0.14893262
H        2.38418410       1.20322631      -0.70371014
H        0.21250696      -1.98371839       1.25181265
H       -0.25406104      -1.73527580      -0.46497676
H       -0.69264407       0.20244391       1.88400347
H       -0.82061745       0.49275206      -1.61544839
H       -0.86518873       2.01338892      -0.69493214
