12
Frame=0 idx=007989 GeodesicLength=0.0 rxn_smarts="[N:1]([c:2]1[n:3][c:4]([H:10])[c:5]([H:11])[c:6]([H:12])[n:7]1)([H:8])[H:9]>>[N:1]([c:2]1[n+:3]([H:10])[c-:4][c:5]([H:11])[c:6]([H:12])[n:7]1)([H:8])[H:9]"
N        2.17505569      -0.38268242      -0.12371737
C        0.84789604      -0.13201494      -0.10233275
N       -0.00147507      -1.15784402       0.09927746
C       -1.35209249      -0.97417571       0.31142908
C       -1.81244156       0.33781396       0.20889520
C       -0.89521761       1.30919652      -0.13947958
N        0.41828594       1.10339571      -0.28597598
H        2.77926835       0.35479230      -0.43585750
H        2.48870608      -1.33250319      -0.19136536
H       -0.58135019      -2.04604563       0.59686442
H       -2.85276281       0.58469730       0.36958952
H       -1.21387232       2.33537016      -0.30732710
12
Frame=1 idx=007989 GeodesicLength=0.03088653088257104 rxn_smarts="[N:1]([c:2]1[n:3][c:4]([H:10])[c:5]([H:11])[c:6]([H:12])[n:7]1)([H:8])[H:9]>>[N:1]([c:2]1[n+:3]([H:10])[c-:4][c:5]([H:11])[c:6]([H:12])[n:7]1)([H:8])[H:9]"
N        2.17548287      -0.38086252      -0.12168756
C        0.84814565      -0.12937376      -0.09710127
N        0.00170602      -1.15498049       0.11430589
C       -1.35152002      -0.97578448       0.29524272
C       -1.80819354       0.33932048       0.21657797
C       -0.89520943       1.30981288      -0.14495957
N        0.41776933       1.10362633      -0.29518770
H        2.77825221       0.35576305      -0.43864745
H        2.48894941      -1.33083426      -0.18866576
H       -0.59200846      -2.05746529       0.59067685
H       -2.84878879       0.58444781       0.37844401
H       -1.21458525       2.33633025      -0.30899813
12
Frame=2 idx=007989 GeodesicLength=0.061770167924759256 rxn_smarts="[N:1]([c:2]1[n:3][c:4]([H:10])[c:5]([H:11])[c:6]([H:12])[n:7]1)([H:8])[H:9]>>[N:1]([c:2]1[n+:3]([H:10])[c-:4][c:5]([H:11])[c:6]([H:12])[n:7]1)([H:8])[H:9]"
N        2.17591383      -0.37915122      -0.12073619
C        0.84845917      -0.12662556      -0.09194676
N        0.00520499      -1.15136976       0.13284216
C       -1.35045917      -0.97720531       0.27927181
C       -1.80460299       0.34007307       0.22059724
C       -0.89475134       1.31107511      -0.14722168
N        0.41735330       1.10398259      -0.30351195
H        2.77694586       0.35613180      -0.44410868
H        2.48895935      -1.32941220      -0.18620752
H       -0.60258194      -2.06847709       0.58569023
H       -2.84547721       0.58326811       0.38390676
H       -1.21496386       2.33771047      -0.30857542
12
Frame=3 idx=007989 GeodesicLength=0.09264879905318679 rxn_smarts="[N:1]([c:2]1[n:3][c:4]([H:10])[c:5]([H:11])[c:6]([H:12])[n:7]1)([H:8])[H:9]>>[N:1]([c:2]1[n+:3]([H:10])[c-:4][c:5]([H:11])[c:6]([H:12])[n:7]1)([H:8])[H:9]"
N        2.17631933      -0.37757841      -0.12091868
C        0.84882604      -0.12375542      -0.08704122
N        0.00899848      -1.14672664       0.15527896
C       -1.34873541      -0.97841043       0.26372313
C       -1.80158254       0.34024644       0.22182432
C       -0.89384462       1.31305262      -0.14631373
N        0.41715054       1.10472142      -0.31004506
H        2.77526878       0.35565429      -0.45275939
H        2.48866596      -1.32830725      -0.18350521
H       -0.61294250      -2.07938250       0.58083811
H       -2.84291980       0.58108266       0.38581448
H       -1.21520426       2.33940323      -0.30689570
12
Frame=4 idx=007989 GeodesicLength=0.1235086363905398 rxn_smarts="[N:1]([c:2]1[n:3][c:4]([H:10])[c:5]([H:11])[c:6]([H:12])[n:7]1)([H:8])[H:9]>>[N:1]([c:2]1[n+:3]([H:10])[c-:4][c:5]([H:11])[c:6]([H:12])[n:7]1)([H:8])[H:9]"
N        2.17668311      -0.37633438      -0.12286481
C        0.84938122      -0.12055253      -0.08137457
N        0.01322267      -1.14049647       0.18351232
C       -1.34594195      -0.97931489       0.24916886
C       -1.79929617       0.33976095       0.21964062
C       -0.89260743       1.31567352      -0.14273488
N        0.41742098       1.10629953      -0.31309525
H        2.77293088       0.35383137      -0.46623147
H        2.48769608      -1.32781432      -0.18127903
H       -0.62263513      -2.09015930       0.57628999
H       -2.84169508       0.57739357       0.38163229
H       -1.21515920       2.34171294      -0.30266407
12
Frame=5 idx=007989 GeodesicLength=0.15449559177841327 rxn_smarts="[N:1]([c:2]1[n:3][c:4]([H:10])[c:5]([H:11])[c:6]([H:12])[n:7]1)([H:8])[H:9]>>[N:1]([c:2]1[n+:3]([H:10])[c-:4][c:5]([H:11])[c:6]([H:12])[n:7]1)([H:8])[H:9]"
N        2.17695017      -0.37588832      -0.12769971
C        0.85041243      -0.11652611      -0.07246554
N        0.01807440      -1.13173234       0.21994795
C       -1.34161443      -0.98003791       0.23665054
C       -1.79796914       0.33843328       0.21276393
C       -0.89116702       1.31894410      -0.13698811
N        0.41856402       1.10944861      -0.30954077
H        2.76944581       0.34990251      -0.48654487
H        2.48525262      -1.32853502      -0.18189952
H       -0.63063329      -2.10046021       0.57306187
H       -2.84262915       0.57143353       0.36706179
H       -1.21468641       2.34501790      -0.29434757
12
Frame=6 idx=007989 GeodesicLength=0.18636169397219104 rxn_smarts="[N:1]([c:2]1[n:3][c:4]([H:10])[c:5]([H:11])[c:6]([H:12])[n:7]1)([H:8])[H:9]>>[N:1]([c:2]1[n+:3]([H:10])[c-:4][c:5]([H:11])[c:6]([H:12])[n:7]1)([H:8])[H:9]"
N        2.17661417      -0.37649456      -0.13521041
C        0.85175674      -0.11156697      -0.06017842
N        0.02305254      -1.12057369       0.26153583
C       -1.33526868      -0.98042673       0.22696099
C       -1.79728867       0.33637559       0.20142415
C       -0.88985860       1.32247183      -0.13005268
N        0.42111284       1.11520415      -0.29607087
H        2.76405722       0.34342791      -0.51369590
H        2.48059302      -1.33079770      -0.18512106
H       -0.63538495      -2.11007299       0.57130983
H       -2.84501183       0.56368917       0.34288496
H       -1.21437381       2.34876398      -0.28378642
12
Frame=7 idx=007989 GeodesicLength=0.21743882672121215 rxn_smarts="[N:1]([c:2]1[n:3][c:4]([H:10])[c:5]([H:11])[c:6]([H:12])[n:7]1)([H:8])[H:9]>>[N:1]([c:2]1[n+:3]([H:10])[c-:4][c:5]([H:11])[c:6]([H:12])[n:7]1)([H:8])[H:9]"
N        2.17576912      -0.37712303      -0.14029908
C        0.85273181      -0.10670946      -0.04818198
N        0.02669576      -1.11032042       0.29629156
C       -1.32895868      -0.98057492       0.21828604
C       -1.79597007       0.33468988       0.19164241
C       -0.88880754       1.32565629      -0.12553207
N        0.42334440       1.12060921      -0.28432813
H        2.75864982       0.33745985      -0.53560274
H        2.47557429      -1.33293817      -0.18698012
H       -0.63875710      -2.11950532       0.56550282
H       -2.84523835       0.55745240       0.32864283
H       -1.21503346       2.35130369      -0.27944154
12
Frame=8 idx=007989 GeodesicLength=0.24834944241182244 rxn_smarts="[N:1]([c:2]1[n:3][c:4]([H:10])[c:5]([H:11])[c:6]([H:12])[n:7]1)([H:8])[H:9]>>[N:1]([c:2]1[n+:3]([H:10])[c-:4][c:5]([H:11])[c:6]([H:12])[n:7]1)([H:8])[H:9]"
N        2.17469391      -0.37757601      -0.14322899
C        0.85328281      -0.10224188      -0.03789929
N        0.02914781      -1.10136886       0.32380241
C       -1.32287321      -0.98074485       0.20960892
C       -1.79435056       0.33319223       0.18282524
C       -0.88819672       1.32829305      -0.12406010
N        0.42495431       1.12507609      -0.27692616
H        2.75368136       0.33218576      -0.55272170
H        2.47091670      -1.33469537      -0.18673306
H       -0.64135199      -2.12823326       0.55941885
H       -2.84409115       0.55239950       0.32187828
H       -1.21581326       2.35371361      -0.27596438
12
Frame=9 idx=007989 GeodesicLength=0.2793766006566788 rxn_smarts="[N:1]([c:2]1[n:3][c:4]([H:10])[c:5]([H:11])[c:6]([H:12])[n:7]1)([H:8])[H:9]>>[N:1]([c:2]1[n+:3]([H:10])[c-:4][c:5]([H:11])[c:6]([H:12])[n:7]1)([H:8])[H:9]"
N        2.17352124      -0.37790694      -0.14485820
C        0.85357501      -0.09803156      -0.02890313
N        0.03083794      -1.09331243       0.34647382
C       -1.31693420      -0.98098583       0.20053845
C       -1.79259143       0.33173543       0.17426129
C       -0.88780885       1.33061053      -0.12428704
N        0.42617858       1.12894595      -0.27233278
H        2.74911203       0.32743480      -0.56663345
H        2.46652874      -1.33618645      -0.18545124
H       -0.64371277      -2.13637631       0.55416296
H       -2.84207863       0.54797737       0.31967144
H       -1.21662767       2.35609544      -0.27264213
12
Frame=10 idx=007989 GeodesicLength=0.31039281474991126 rxn_smarts="[N:1]([c:2]1[n:3][c:4]([H:10])[c:5]([H:11])[c:6]([H:12])[n:7]1)([H:8])[H:9]>>[N:1]([c:2]1[n+:3]([H:10])[c-:4][c:5]([H:11])[c:6]([H:12])[n:7]1)([H:8])[H:9]"
N        2.17227214      -0.37823361      -0.14587165
C        0.85379490      -0.09385020      -0.02020816
N        0.03206068      -1.08576451       0.36628337
C       -1.31098868      -0.98126043       0.19123901
C       -1.79069870       0.33030129       0.16586881
C       -0.88748824       1.33279382      -0.12524884
N        0.42726882       1.13260696      -0.26875971
H        2.74472205       0.32298176      -0.57870425
H        2.46209532      -1.33761636      -0.18425299
H       -0.64593959      -2.14408374       0.54983233
H       -2.83957869       0.54375132       0.31952216
H       -1.21752002       2.35837371      -0.26970008
12
Frame=11 idx=007989 GeodesicLength=0.341524848567171 rxn_smarts="[N:1]([c:2]1[n:3][c:4]([H:10])[c:5]([H:11])[c:6]([H:12])[n:7]1)([H:8])[H:9]>>[N:1]([c:2]1[n+:3]([H:10])[c-:4][c:5]([H:11])[c:6]([H:12])[n:7]1)([H:8])[H:9]"
N        2.17094070      -0.37863035      -0.14667756
C        0.85407370      -0.08954060      -0.01118032
N        0.03300475      -1.07846965       0.38444392
C       -1.30483634      -0.98154019       0.18182844
C       -1.78868902       0.32883629       0.15743362
C       -0.88717656       1.33492133      -0.12651838
N        0.42840715       1.13632280      -0.26510712
H        2.74031945       0.31867481      -0.58979904
H        2.45737928      -1.33912407      -0.18382879
H       -0.64811913      -2.15144399       0.54657657
H       -2.83681164       0.53943724       0.31991647
H       -1.21849235       2.36055640      -0.26708782
12
Frame=12 idx=007989 GeodesicLength=0.37273565032356404 rxn_smarts="[N:1]([c:2]1[n:3][c:4]([H:10])[c:5]([H:11])[c:6]([H:12])[n:7]1)([H:8])[H:9]>>[N:1]([c:2]1[n+:3]([H:10])[c-:4][c:5]([H:11])[c:6]([H:12])[n:7]1)([H:8])[H:9]"
N        2.16951589      -0.37908644      -0.14739182
C        0.85447170      -0.08501569      -0.00145941
N        0.03373798      -1.07132066       0.40152857
C       -1.29843499      -0.98179276       0.17226610
C       -1.78653922       0.32734297       0.14890674
C       -0.88680335       1.33708492      -0.12768827
N        0.42968508       1.14027080      -0.26063588
H        2.73569705       0.31433578      -0.60063452
H        2.45232062      -1.34072279      -0.18403537
H       -0.65024769      -2.15862833       0.54387157
H       -2.83378107       0.53497798       0.32066213
H       -1.21962200       2.36255422      -0.26538984
12
Frame=13 idx=007989 GeodesicLength=0.4040275618483858 rxn_smarts="[N:1]([c:2]1[n:3][c:4]([H:10])[c:5]([H:11])[c:6]([H:12])[n:7]1)([H:8])[H:9]>>[N:1]([c:2]1[n+:3]([H:10])[c-:4][c:5]([H:11])[c:6]([H:12])[n:7]1)([H:8])[H:9]"
N        2.16796848      -0.37959939      -0.14821300
C        0.85504631      -0.08018257       0.00919173
N        0.03435850      -1.06413876       0.41817046
C       -1.29162848      -0.98206113       0.16266688
C       -1.78424356       0.32575386       0.13996880
C       -0.88639176       1.33924519      -0.12903328
N        0.43113242       1.14451057      -0.25521298
H        2.73059517       0.30973025      -0.61205447
H        2.44684760      -1.34243886      -0.18475748
H       -0.65227151      -2.16557545       0.54207196
H       -2.83064901       0.53016148       0.32053919
H       -1.22076414       2.36459481      -0.26333781
12
Frame=14 idx=007989 GeodesicLength=0.4354512006665932 rxn_smarts="[N:1]([c:2]1[n:3][c:4]([H:10])[c:5]([H:11])[c:6]([H:12])[n:7]1)([H:8])[H:9]>>[N:1]([c:2]1[n+:3]([H:10])[c-:4][c:5]([H:11])[c:6]([H:12])[n:7]1)([H:8])[H:9]"
N        2.16631245      -0.38011488      -0.14900551
C        0.85571208      -0.07518386       0.02022557
N        0.03485657      -1.05696971       0.43426775
C       -1.28452865      -0.98225149       0.15326006
C       -1.78177510       0.32415784       0.13106181
C       -0.88593062       1.34140599      -0.13048857
N        0.43267035       1.14893816      -0.24927353
H        2.72510112       0.30492294      -0.62376941
H        2.44112131      -1.34417415      -0.18556780
H       -0.65420788      -2.17248301       0.54056703
H       -2.82738921       0.52513912       0.31996837
H       -1.22194243       2.36661303      -0.26124578
12
Frame=15 idx=007989 GeodesicLength=0.46687612447220306 rxn_smarts="[N:1]([c:2]1[n:3][c:4]([H:10])[c:5]([H:11])[c:6]([H:12])[n:7]1)([H:8])[H:9]>>[N:1]([c:2]1[n+:3]([H:10])[c-:4][c:5]([H:11])[c:6]([H:12])[n:7]1)([H:8])[H:9]"
N        2.16453699      -0.38063198      -0.14979709
C        0.85648176      -0.07002936       0.03173435
N        0.03524739      -1.04984816       0.44989369
C       -1.27711793      -0.98238381       0.14402629
C       -1.77910325       0.32258912       0.12233827
C       -0.88536112       1.34363918      -0.13163359
N        0.43435038       1.15361190      -0.24238756
H        2.71913737       0.29994320      -0.63581510
H        2.43513379      -1.34592815      -0.18653671
H       -0.65610908      -2.17938730       0.53900307
H       -2.82397225       0.51995128       0.31914754
H       -1.22322405       2.36847408      -0.25997316
12
Frame=16 idx=007989 GeodesicLength=0.49831842849876395 rxn_smarts="[N:1]([c:2]1[n:3][c:4]([H:10])[c:5]([H:11])[c:6]([H:12])[n:7]1)([H:8])[H:9]>>[N:1]([c:2]1[n+:3]([H:10])[c-:4][c:5]([H:11])[c:6]([H:12])[n:7]1)([H:8])[H:9]"
N        2.16267995      -0.38109422      -0.15048315
C        0.85726028      -0.06487103       0.04312140
N        0.03553135      -1.04282946       0.46487053
C       -1.26952699      -0.98240054       0.13518093
C       -1.77624971       0.32111577       0.11413356
C       -0.88471165       1.34591567      -0.13252259
N        0.43605691       1.15835386      -0.23526599
H        2.71283075       0.29484579      -0.64794637
H        2.42912345      -1.34759781      -0.18714524
H       -0.65799518      -2.18638716       0.53705365
H       -2.82043757       0.51472433       0.31828884
H       -1.22456159       2.37022480      -0.25928556
