11
Frame=0 idx=004786 GeodesicLength=0.0 rxn_smarts="[C:1]([c:2]1[c:3]([H:10])[o:4][n:5][c:6]1[H:11])([H:7])([H:8])[H:9]>>[C:1]([C:2]([C:3](=[O:4])[H:10])=[C:6]=[N:5][H:11])([H:7])([H:8])[H:9]"
C       -1.48640516      -0.08935419       0.03193964
C        0.00602857      -0.02028717       0.00414562
C        0.92641188      -1.11446341       0.15341443
O        2.14416925      -1.00186212       0.12467882
N        1.99016220       1.44249795      -0.23386684
C        0.83085687       1.05411586      -0.16254810
H       -1.78885008      -1.13346812       0.12673037
H       -1.91858968       0.44850386       0.87839737
H       -1.94025666       0.29415250      -0.88392813
H        0.45938238      -2.10356802       0.29867764
H        0.77709046       2.22373285      -0.33764085
11
Frame=1 idx=004786 GeodesicLength=0.052652449060905965 rxn_smarts="[C:1]([c:2]1[c:3]([H:10])[o:4][n:5][c:6]1[H:11])([H:7])([H:8])[H:9]>>[C:1]([C:2]([C:3](=[O:4])[H:10])=[C:6]=[N:5][H:11])([H:7])([H:8])[H:9]"
C       -1.48975363      -0.09260683       0.03296505
C        0.00247747      -0.02395098      -0.00680511
C        0.92315663      -1.11587331       0.14108563
O        2.14224535      -0.98329713       0.13090875
N        1.98844433       1.42845743      -0.21114824
C        0.82095692       1.05414578      -0.18177493
H       -1.79198606      -1.13646937       0.13134720
H       -1.91434232       0.44752190       0.88175262
H       -1.94952039       0.29104485      -0.87986638
H        0.46599330      -2.10622630       0.30267685
H        0.80232839       2.23725396      -0.34114145
11
Frame=2 idx=004786 GeodesicLength=0.10595112657635672 rxn_smarts="[C:1]([c:2]1[c:3]([H:10])[o:4][n:5][c:6]1[H:11])([H:7])([H:8])[H:9]>>[C:1]([C:2]([C:3](=[O:4])[H:10])=[C:6]=[N:5][H:11])([H:7])([H:8])[H:9]"
C       -1.49284808      -0.09579230       0.03435088
C       -0.00085994      -0.02741116      -0.01629910
C        0.92003226      -1.11779942       0.12579456
O        2.13973356      -0.96438919       0.14320624
N        1.98586326       1.41400980      -0.19409456
C        0.81144789       1.05521702      -0.19353634
H       -1.79494522      -1.13984914       0.13112231
H       -1.91027846       0.44254561       0.88777785
H       -1.95790569       0.29240609      -0.87379571
H        0.47250941      -2.10857795       0.30594122
H        0.82725100       2.24964064      -0.35046735
11
Frame=3 idx=004786 GeodesicLength=0.1583056894955936 rxn_smarts="[C:1]([c:2]1[c:3]([H:10])[o:4][n:5][c:6]1[H:11])([H:7])([H:8])[H:9]>>[C:1]([C:2]([C:3](=[O:4])[H:10])=[C:6]=[N:5][H:11])([H:7])([H:8])[H:9]"
C       -1.49585420      -0.09895172       0.03548900
C       -0.00417303      -0.03047050      -0.02382746
C        0.91695913      -1.11862230       0.11698726
O        2.13704589      -0.94669967       0.14633425
N        1.98197234       1.40050964      -0.17444890
C        0.80189134       1.05648892      -0.20469569
H       -1.79765811      -1.14298660       0.13297098
H       -1.90757373       0.43972760       0.89137797
H       -1.96483499       0.29123653      -0.86973709
H        0.47911898      -2.11074771       0.30867073
H        0.85310639       2.26051581      -0.35912105
11
Frame=4 idx=004786 GeodesicLength=0.2107950129754813 rxn_smarts="[C:1]([c:2]1[c:3]([H:10])[o:4][n:5][c:6]1[H:11])([H:7])([H:8])[H:9]>>[C:1]([C:2]([C:3](=[O:4])[H:10])=[C:6]=[N:5][H:11])([H:7])([H:8])[H:9]"
C       -1.49884528      -0.10211443       0.03661741
C       -0.00741133      -0.03327447      -0.02989381
C        0.91394773      -1.11925981       0.10962252
O        2.13423710      -0.92950010       0.14840653
N        1.97773212       1.38723867      -0.15690903
C        0.79246152       1.05832366      -0.21255079
H       -1.80034238      -1.14627061       0.13366962
H       -1.90573384       0.43618177       0.89498390
H       -1.97092080       0.29075663      -0.86580021
H        0.48574962      -2.11288839       0.31103914
H        0.87912555       2.27080709      -0.36918528
11
Frame=5 idx=004786 GeodesicLength=0.26312010850069717 rxn_smarts="[C:1]([c:2]1[c:3]([H:10])[o:4][n:5][c:6]1[H:11])([H:7])([H:8])[H:9]>>[C:1]([C:2]([C:3](=[O:4])[H:10])=[C:6]=[N:5][H:11])([H:7])([H:8])[H:9]"
C       -1.50183678      -0.10529070       0.03780497
C       -0.01061214      -0.03575108      -0.03431817
C        0.91096529      -1.11959304       0.10382302
O        2.13128607      -0.91255736       0.15038727
N        1.97324040       1.37410415      -0.14234990
C        0.78302361       1.06080199      -0.21708544
H       -1.80296337      -1.14969809       0.13338456
H       -1.90486063       0.43195144       0.89860364
H       -1.97614304       0.29081428      -0.86200167
H        0.49238626      -2.11513516       0.31210936
H        0.90551433       2.28035356      -0.38035764
11
Frame=6 idx=004786 GeodesicLength=0.31577684916174126 rxn_smarts="[C:1]([c:2]1[c:3]([H:10])[o:4][n:5][c:6]1[H:11])([H:7])([H:8])[H:9]>>[C:1]([C:2]([C:3](=[O:4])[H:10])=[C:6]=[N:5][H:11])([H:7])([H:8])[H:9]"
C       -1.50475963      -0.10848258       0.03853959
C       -0.01372625      -0.03818068      -0.03860256
C        0.90799650      -1.11976172       0.09926610
O        2.12823510      -0.89589917       0.15202213
N        1.96869997       1.36069962      -0.13327587
C        0.77366449       1.06318477      -0.22198274
H       -1.80551241      -1.15303378       0.13342094
H       -1.90432905       0.42841408       0.90108871
H       -1.98091500       0.29003835      -0.85915955
H        0.49899584      -2.11711033       0.31421821
H        0.93165041       2.29013144      -0.38553496
11
Frame=7 idx=004786 GeodesicLength=0.3685602829310052 rxn_smarts="[C:1]([c:2]1[c:3]([H:10])[o:4][n:5][c:6]1[H:11])([H:7])([H:8])[H:9]>>[C:1]([C:2]([C:3](=[O:4])[H:10])=[C:6]=[N:5][H:11])([H:7])([H:8])[H:9]"
C       -1.50767496      -0.11168347       0.03929621
C       -0.01681088      -0.04044679      -0.04219940
C        0.90503283      -1.11980450       0.09528742
O        2.12510654      -0.87957227       0.15287542
N        1.96386540       1.34778396      -0.12438587
C        0.76431032       1.06588263      -0.22526468
H       -1.80803034      -1.15644308       0.13286673
H       -1.90418993       0.42443523       0.90366569
H       -1.98533293       0.28963561      -0.85629974
H        0.50562275      -2.11898815       0.31621021
H        0.95810120       2.29920082      -0.39205199
11
Frame=8 idx=004786 GeodesicLength=0.4219179344915 rxn_smarts="[C:1]([c:2]1[c:3]([H:10])[o:4][n:5][c:6]1[H:11])([H:7])([H:8])[H:9]>>[C:1]([C:2]([C:3](=[O:4])[H:10])=[C:6]=[N:5][H:11])([H:7])([H:8])[H:9]"
C       -1.51058285      -0.11488434       0.04013979
C       -0.01986756      -0.04262183      -0.04541316
C        0.90208800      -1.11979936       0.09160349
O        2.12188053      -0.86351617       0.15332763
N        1.95868230       1.33544104      -0.11470133
C        0.75498720       1.06873906      -0.22753042
H       -1.81053487      -1.15989369       0.13193548
H       -1.90421119       0.42011721       0.90645492
H       -1.98960987       0.28955954      -0.85326824
H        0.51228571      -2.12087817       0.31780522
H        0.98488261       2.30773671      -0.40035339
11
Frame=9 idx=004786 GeodesicLength=0.47343753224959945 rxn_smarts="[C:1]([c:2]1[c:3]([H:10])[o:4][n:5][c:6]1[H:11])([H:7])([H:8])[H:9]>>[C:1]([C:2]([C:3](=[O:4])[H:10])=[C:6]=[N:5][H:11])([H:7])([H:8])[H:9]"
C       -1.51376055      -0.11816014       0.04208174
C       -0.02321267      -0.04405150      -0.04650722
C        0.89915765      -1.11914628       0.08724026
O        2.11846793      -0.84693279       0.15365065
N        1.95205541       1.32555614      -0.09493527
C        0.74500621       1.07334540      -0.22316407
H       -1.81301068      -1.16386445       0.12814594
H       -1.90512237       0.41240344       0.91209008
H       -1.99382903       0.29249018      -0.84790883
H        0.51922119      -2.12287979       0.31516113
H        1.01502690       2.31123979      -0.42585440
11
Frame=10 idx=004786 GeodesicLength=0.5260151748648028 rxn_smarts="[C:1]([c:2]1[c:3]([H:10])[o:4][n:5][c:6]1[H:11])([H:7])([H:8])[H:9]>>[C:1]([C:2]([C:3](=[O:4])[H:10])=[C:6]=[N:5][H:11])([H:7])([H:8])[H:9]"
C       -1.51668357      -0.12133512       0.04327183
C       -0.02630516      -0.04583925      -0.04911014
C        0.89625033      -1.11867665       0.08394902
O        2.11497763      -0.83083740       0.15404714
N        1.94575462       1.31477498      -0.08287497
C        0.73551217       1.07677425      -0.22392711
H       -1.81540669      -1.16734833       0.12691211
H       -1.90536440       0.40752067       0.91543611
H       -1.99802778       0.29285630      -0.84431299
H        0.52602348      -2.12463896       0.31479999
H        1.04326936       2.31674950      -0.43819099
11
Frame=11 idx=004786 GeodesicLength=0.5786147020388696 rxn_smarts="[C:1]([c:2]1[c:3]([H:10])[o:4][n:5][c:6]1[H:11])([H:7])([H:8])[H:9]>>[C:1]([C:2]([C:3](=[O:4])[H:10])=[C:6]=[N:5][H:11])([H:7])([H:8])[H:9]"
C       -1.51957839      -0.12448875       0.04443898
C       -0.02937891      -0.04756069      -0.05180430
C        0.89336435      -1.11812378       0.08094396
O        2.11142225      -0.81492036       0.15414246
N        1.93905007       1.30449359      -0.07079170
C        0.72602079       1.08023640      -0.22505633
H       -1.81775289      -1.17080871       0.12592035
H       -1.90554457       0.40287604       0.91864345
H       -2.00224643       0.29301535      -0.84082585
H        0.53288001      -2.12631174       0.31436349
H        1.07176372       2.32159263      -0.44997453
11
Frame=12 idx=004786 GeodesicLength=0.6316899551948053 rxn_smarts="[C:1]([c:2]1[c:3]([H:10])[o:4][n:5][c:6]1[H:11])([H:7])([H:8])[H:9]>>[C:1]([C:2]([C:3](=[O:4])[H:10])=[C:6]=[N:5][H:11])([H:7])([H:8])[H:9]"
C       -1.52241735      -0.12760246       0.04564882
C       -0.03240538      -0.04929628      -0.05479721
C        0.89052827      -1.11758213       0.07810298
O        2.10772811      -0.79909776       0.15507259
N        1.93202053       1.29457777      -0.05897613
C        0.71662011       1.08357474      -0.22693737
H       -1.82005973      -1.17421114       0.12536659
H       -1.90545412       0.39859026       0.92180535
H       -2.00660125       0.29294130      -0.83733461
H        0.53976210      -2.12813698       0.31316584
H        1.10027870       2.32624269      -0.46111686
11
Frame=13 idx=004786 GeodesicLength=0.6839640254381186 rxn_smarts="[C:1]([c:2]1[c:3]([H:10])[o:4][n:5][c:6]1[H:11])([H:7])([H:8])[H:9]>>[C:1]([C:2]([C:3](=[O:4])[H:10])=[C:6]=[N:5][H:11])([H:7])([H:8])[H:9]"
C       -1.52546441      -0.13082690       0.04736668
C       -0.03568024      -0.05047883      -0.05684011
C        0.88770467      -1.11632167       0.07493452
O        2.10383287      -0.78255965       0.15577630
N        1.92362248       1.28646793      -0.04152901
C        0.70664453       1.08800044      -0.22547909
H       -1.82229903      -1.17791583       0.12313356
H       -1.90592357       0.39225056       0.92641841
H       -2.01106052       0.29436467      -0.83252600
H        0.54694527      -2.12961196       0.30974715
H        1.13167794       2.32663126      -0.48100241
11
Frame=14 idx=004786 GeodesicLength=0.7366390639009639 rxn_smarts="[C:1]([c:2]1[c:3]([H:10])[o:4][n:5][c:6]1[H:11])([H:7])([H:8])[H:9]>>[C:1]([C:2]([C:3](=[O:4])[H:10])=[C:6]=[N:5][H:11])([H:7])([H:8])[H:9]"
C       -1.52836970      -0.13396012       0.04888295
C       -0.03883419      -0.05184120      -0.05971438
C        0.88492449      -1.11521403       0.07218445
O        2.09985221      -0.76632580       0.15691381
N        1.91512048       1.27826318      -0.02675442
C        0.69693152       1.09186769      -0.22664407
H       -1.82448742      -1.18140326       0.12223959
H       -1.90585397       0.38728349       0.93024024
H       -2.01566385       0.29472296      -0.82832638
H        0.55410417      -2.13114820       0.30675234
H        1.16227627       2.32775528      -0.49577413
11
Frame=15 idx=004786 GeodesicLength=0.7893590363206446 rxn_smarts="[C:1]([c:2]1[c:3]([H:10])[o:4][n:5][c:6]1[H:11])([H:7])([H:8])[H:9]>>[C:1]([C:2]([C:3](=[O:4])[H:10])=[C:6]=[N:5][H:11])([H:7])([H:8])[H:9]"
C       -1.53121851      -0.13705789       0.05030757
C       -0.04195092      -0.05320809      -0.06286291
C        0.88215661      -1.11405989       0.06975500
O        2.09580572      -0.75024245       0.15772808
N        1.90629744       1.27034470      -0.01289859
C        0.68729197       1.09557215      -0.22880816
H       -1.82662948      -1.18480444       0.12184505
H       -1.90562506       0.38283731       0.93370892
H       -2.02028794       0.29463877      -0.82438454
H        0.56131527      -2.13255262       0.30405924
H        1.19284491       2.32853245      -0.50844967
11
Frame=16 idx=004786 GeodesicLength=0.8420929662082277 rxn_smarts="[C:1]([c:2]1[c:3]([H:10])[o:4][n:5][c:6]1[H:11])([H:7])([H:8])[H:9]>>[C:1]([C:2]([C:3](=[O:4])[H:10])=[C:6]=[N:5][H:11])([H:7])([H:8])[H:9]"
C       -1.53403158      -0.14012721       0.05165906
C       -0.04504470      -0.05455255      -0.06612686
C        0.87939535      -1.11284213       0.06766274
O        2.09172143      -0.73430260       0.15799745
N        1.89715110       1.26275359       0.00030677
C        0.67769504       1.09918253      -0.23162587
H       -1.82873140      -1.18814509       0.12183205
H       -1.90534349       0.37880563       0.93686908
H       -2.02488728       0.29419478      -0.82068354
H        0.56859706      -2.13382344       0.30164740
H        1.22347849       2.32885648      -0.51953828
