17
Frame=0 idx=007545 GeodesicLength=0.0 rxn_smarts="[O:1]([C:2]([C:3]([C:4]1([H:13])[C:5]([H:14])([H:15])[O:6][C:7]1([H:16])[H:17])([H:11])[H:12])([H:9])[H:10])[H:8]>>[O:1]([C:2]([C:3]([C:4]([C:7]([O+:6]=[C-:5][H:14])([H:16])[H:17])([H:13])[H:15])([H:11])[H:12])([H:9])[H:10])[H:8]"
O        1.80101035       0.19446398       1.16234583
C        1.87076546      -0.38703618      -0.12723580
C        0.47082519      -0.82765237      -0.51535372
C       -0.50427383       0.32210325      -0.53299510
C       -2.53298732      -0.02917119      -0.52513668
O       -2.43902285       1.01915587       0.39193944
C       -1.09382236       0.85210896       0.78366244
H        2.66980507       0.50607981       1.41819348
H        2.54185453      -1.25419153      -0.13200290
H        2.24860206       0.33809198      -0.86017567
H        0.12754779      -1.59121601       0.18754575
H        0.51762195      -1.29435652      -1.50332744
H       -0.16926275       1.14102272      -1.17967701
H       -2.32421425      -0.97862297       0.01399259
H       -1.51413518       0.10388508      -1.29182254
H       -0.66850395       1.79222310       1.13873415
H       -1.00180998       0.09311204       1.57131326
17
Frame=1 idx=007545 GeodesicLength=0.059546371522357984 rxn_smarts="[O:1]([C:2]([C:3]([C:4]1([H:13])[C:5]([H:14])([H:15])[O:6][C:7]1([H:16])[H:17])([H:11])[H:12])([H:9])[H:10])[H:8]>>[O:1]([C:2]([C:3]([C:4]([C:7]([O+:6]=[C-:5][H:14])([H:16])[H:17])([H:13])[H:15])([H:11])[H:12])([H:9])[H:10])[H:8]"
O        1.80347583       0.19339903       1.16586034
C        1.87261638      -0.38361971      -0.12583700
C        0.47409622      -0.82794547      -0.51446598
C       -0.50792583       0.31714875      -0.53661022
C       -2.54161658      -0.02453058      -0.51911288
O       -2.43570229       1.02391550       0.39224221
C       -1.08873911       0.84900718       0.78255823
H        2.67205229       0.50563011       1.42165978
H        2.54697673      -1.24822667      -0.13421170
H        2.24722195       0.34533345      -0.85669163
H        0.13404045      -1.59309353       0.18844427
H        0.52413578      -1.29615270      -1.50161881
H       -0.16863319       1.13780882      -1.17880580
H       -2.34986084      -0.97813703       0.01863739
H       -1.52141579       0.10195061      -1.30948040
H       -0.65733174       1.78666695       1.13599914
H       -1.00339027       0.09084529       1.57143306
17
Frame=2 idx=007545 GeodesicLength=0.11908923738448288 rxn_smarts="[O:1]([C:2]([C:3]([C:4]1([H:13])[C:5]([H:14])([H:15])[O:6][C:7]1([H:16])[H:17])([H:11])[H:12])([H:9])[H:10])[H:8]>>[O:1]([C:2]([C:3]([C:4]([C:7]([O+:6]=[C-:5][H:14])([H:16])[H:17])([H:13])[H:15])([H:11])[H:12])([H:9])[H:10])[H:8]"
O        1.80599288       0.19228413       1.16941120
C        1.87451119      -0.38015481      -0.12442807
C        0.47744577      -0.82825021      -0.51358194
C       -0.51156686       0.31207352      -0.54020219
C       -2.55016855      -0.01985006      -0.51308674
O       -2.43230943       1.02864732       0.39246587
C       -1.08365009       0.84578160       0.78143536
H        2.67433238       0.50518928       1.42515252
H        2.55218892      -1.24214121      -0.13647999
H        2.24580120       0.35268252      -0.85314089
H        0.14066769      -1.59501190       0.18931660
H        0.53074713      -1.29790643      -1.49992517
H       -0.16806893       1.13442926      -1.17796076
H       -2.37607603      -0.97724919       0.02356802
H       -1.52869003       0.09999255      -1.32731573
H       -0.64617076       1.78095569       1.13322387
H       -1.00498649       0.08852793       1.57154806
17
Frame=3 idx=007545 GeodesicLength=0.17863134083590754 rxn_smarts="[O:1]([C:2]([C:3]([C:4]1([H:13])[C:5]([H:14])([H:15])[O:6][C:7]1([H:16])[H:17])([H:11])[H:12])([H:9])[H:10])[H:8]>>[O:1]([C:2]([C:3]([C:4]([C:7]([O+:6]=[C-:5][H:14])([H:16])[H:17])([H:13])[H:15])([H:11])[H:12])([H:9])[H:10])[H:8]"
O        1.80856287       0.19112070       1.17299682
C        1.87645069      -0.37664165      -0.12300866
C        0.48087577      -0.82856821      -0.51270156
C       -0.51519553       0.30687362      -0.54376878
C       -2.55864316      -0.01513585      -0.50705407
O       -2.42884323       1.03334791       0.39260891
C       -1.07855664       0.84242688       0.78029521
H        2.67664465       0.50476654       1.42866678
H        2.55749192      -1.23593331      -0.13880527
H        2.24433865       0.36013684      -0.84952334
H        0.14743309      -1.59697312       0.19016210
H        0.53745839      -1.29961767      -1.49824720
H       -0.16756963       1.13088275      -1.17713968
H       -2.40287299      -0.97593796       0.02878797
H       -1.53595132       0.09801482      -1.34533979
H       -0.63502365       1.77508332       1.13041218
H       -1.00659987       0.08615440       1.57165838
17
Frame=4 idx=007545 GeodesicLength=0.23817441401685868 rxn_smarts="[O:1]([C:2]([C:3]([C:4]1([H:13])[C:5]([H:14])([H:15])[O:6][C:7]1([H:16])[H:17])([H:11])[H:12])([H:9])[H:10])[H:8]>>[O:1]([C:2]([C:3]([C:4]([C:7]([O+:6]=[C-:5][H:14])([H:16])[H:17])([H:13])[H:15])([H:11])[H:12])([H:9])[H:10])[H:8]"
O        1.81118675       0.18990984       1.17661574
C        1.87843547      -0.37308009      -0.12157816
C        0.48438823      -0.82890112      -0.51182500
C       -0.51881051       0.30154486      -0.54730804
C       -2.56704020      -0.01039407      -0.50100980
O       -2.42530217       1.03801423       0.39266915
C       -1.07345990       0.83893747       0.77913876
H        2.67898809       0.50437000       1.43219847
H        2.56288671      -1.22959995      -0.14118547
H        2.24283288       0.36769469      -0.84583847
H        0.15434031      -1.59897937       0.19097980
H        0.54427240      -1.30128622      -1.49658600
H       -0.16713518       1.12716729      -1.17634108
H       -2.43026455      -0.97418072       0.03430203
H       -1.54319348       0.09602047      -1.36356365
H       -0.62389319       1.76904365       1.12756781
H       -1.00823165       0.08371903       1.57176388
17
Frame=5 idx=007545 GeodesicLength=0.2977204832594602 rxn_smarts="[O:1]([C:2]([C:3]([C:4]1([H:13])[C:5]([H:14])([H:15])[O:6][C:7]1([H:16])[H:17])([H:11])[H:12])([H:9])[H:10])[H:8]>>[O:1]([C:2]([C:3]([C:4]([C:7]([O+:6]=[C-:5][H:14])([H:16])[H:17])([H:13])[H:15])([H:11])[H:12])([H:9])[H:10])[H:8]"
O        1.81386559       0.18865303       1.18026654
C        1.88046628      -0.36946981      -0.12013643
C        0.48798522      -0.82925066      -0.51095225
C       -0.52241059       0.29608282      -0.55081800
C       -2.57535985      -0.00563266      -0.49494814
O       -2.42168545       1.04264222       0.39264581
C       -1.06836117       0.83530809       0.77796735
H        2.68136201       0.50400653       1.43574450
H        2.56837441      -1.22313881      -0.14361891
H        2.24128222       0.37535504      -0.84208599
H        0.16139341      -1.60103261       0.19176914
H        0.55119185      -1.30291232      -1.49494229
H       -0.16676622       1.12328075      -1.17556393
H       -2.45826240      -0.97195202       0.04011264
H       -1.55041014       0.09401220      -1.38199897
H       -0.61278267       1.76283173       1.12469401
H       -1.00988251       0.08121646       1.57186492
17
Frame=6 idx=007545 GeodesicLength=0.3572729266361781 rxn_smarts="[O:1]([C:2]([C:3]([C:4]1([H:13])[C:5]([H:14])([H:15])[O:6][C:7]1([H:16])[H:17])([H:11])[H:12])([H:9])[H:10])[H:8]>>[O:1]([C:2]([C:3]([C:4]([C:7]([O+:6]=[C-:5][H:14])([H:16])[H:17])([H:13])[H:15])([H:11])[H:12])([H:9])[H:10])[H:8]"
O        1.81660009       0.18735097       1.18394807
C        1.88254373      -0.36581004      -0.11868337
C        0.49166907      -0.82961859      -0.51008402
C       -0.52599459       0.29048251      -0.55429750
C       -2.58360179      -0.00086015      -0.48886469
O       -2.41799244       1.04722495       0.39253675
C       -1.06326167       0.83153290       0.77678137
H        2.68376549       0.50368105       1.43930357
H        2.57395658      -1.21654516      -0.14610466
H        2.23968447       0.38311793      -0.83826476
H        0.16859656      -1.60313520       0.19252859
H        0.55822032      -1.30449580      -1.49331753
H       -0.16646317       1.11922088      -1.17480705
H       -2.48688174      -0.96922295       0.04623040
H       -1.55759338       0.09199327      -1.40065915
H       -0.60169526       1.75644189       1.12179264
H       -1.01155227       0.07864155       1.57196132
17
Frame=7 idx=007545 GeodesicLength=0.41683400471493537 rxn_smarts="[O:1]([C:2]([C:3]([C:4]1([H:13])[C:5]([H:14])([H:15])[O:6][C:7]1([H:16])[H:17])([H:11])[H:12])([H:9])[H:10])[H:8]>>[O:1]([C:2]([C:3]([C:4]([C:7]([O+:6]=[C-:5][H:14])([H:16])[H:17])([H:13])[H:15])([H:11])[H:12])([H:9])[H:10])[H:8]"
O        1.81939105       0.18600478       1.18765922
C        1.88466800      -0.36209980      -0.11721869
C        0.49544161      -0.83000662      -0.50922005
C       -0.52956210       0.28473885      -0.55774482
C       -2.59176613       0.00391350      -0.48275088
O       -2.41422214       1.05175856       0.39234099
C       -1.05816258       0.82760710       0.77558205
H        2.68619787       0.50339843       1.44287366
H        2.57963437      -1.20981569      -0.14864222
H        2.23803681       0.39098345      -0.83437421
H        0.17595391      -1.60528896       0.19325811
H        0.56536034      -1.30603713      -1.49171211
H       -0.16622725       1.11498465      -1.17406975
H       -2.51613326      -0.96596866       0.05265551
H       -1.56473577       0.08996769      -1.41955638
H       -0.59063351       1.74986990       1.11886558
H       -1.01324121       0.07598995       1.57205397
17
Frame=8 idx=007545 GeodesicLength=0.4764070143240814 rxn_smarts="[O:1]([C:2]([C:3]([C:4]1([H:13])[C:5]([H:14])([H:15])[O:6][C:7]1([H:16])[H:17])([H:11])[H:12])([H:9])[H:10])[H:8]>>[O:1]([C:2]([C:3]([C:4]([C:7]([O+:6]=[C-:5][H:14])([H:16])[H:17])([H:13])[H:15])([H:11])[H:12])([H:9])[H:10])[H:8]"
O        1.82223892       0.18461470       1.19139933
C        1.88683943      -0.35833769      -0.11574233
C        0.49930520      -0.83041659      -0.50836088
C       -0.53311241       0.27884618      -0.56115879
C       -2.59985328       0.00867781      -0.47660041
O       -2.41037399       1.05623596       0.39205674
C       -1.05306516       0.82352503       0.77436986
H        2.68865815       0.50316101       1.44645455
H        2.58540959      -1.20294482      -0.15123205
H        2.23633591       0.39895314      -0.83041252
H        0.18347017      -1.60749620       0.19395634
H        0.57261569      -1.30753629      -1.49012733
H       -0.16605998       1.11056885      -1.17335163
H       -2.54602957      -0.96215640       0.05939698
H       -1.57182888       0.08793716      -1.43870488
H       -0.57960097       1.74311116       1.11591387
H       -1.01494882       0.07325699       1.57214314
17
Frame=9 idx=007545 GeodesicLength=0.5359907252420804 rxn_smarts="[O:1]([C:2]([C:3]([C:4]1([H:13])[C:5]([H:14])([H:15])[O:6][C:7]1([H:16])[H:17])([H:11])[H:12])([H:9])[H:10])[H:8]>>[O:1]([C:2]([C:3]([C:4]([C:7]([O+:6]=[C-:5][H:14])([H:16])[H:17])([H:13])[H:15])([H:11])[H:12])([H:9])[H:10])[H:8]"
O        1.82514393       0.18318201       1.19516846
C        1.88905858      -0.35452193      -0.11425466
C        0.50326278      -0.83085053      -0.50750756
C       -0.53664496       0.27279778      -0.56453920
C       -2.60786306       0.01341574      -0.47040361
O       -2.40644939       1.06064743       0.39168347
C       -1.04797200       0.81927977       0.77314476
H        2.69114545       0.50297104       1.45004887
H        2.59128440      -1.19592856      -0.15387463
H        2.23457875       0.40702908      -0.82638025
H        0.19115091      -1.60975959       0.19462155
H        0.57999103      -1.30899372      -1.48856485
H       -0.16596354       1.10596957      -1.17265308
H       -2.57658159      -0.95773911       0.06646184
H       -1.57886422       0.08590320      -1.45811817
H       -0.56860320       1.73616149       1.11293812
H       -1.01667387       0.07043633       1.57222893
17
Frame=10 idx=007545 GeodesicLength=0.5955864135127235 rxn_smarts="[O:1]([C:2]([C:3]([C:4]1([H:13])[C:5]([H:14])([H:15])[O:6][C:7]1([H:16])[H:17])([H:11])[H:12])([H:9])[H:10])[H:8]>>[O:1]([C:2]([C:3]([C:4]([C:7]([O+:6]=[C-:5][H:14])([H:16])[H:17])([H:13])[H:15])([H:11])[H:12])([H:9])[H:10])[H:8]"
O        1.82810668       0.18170694       1.19896483
C        1.89132507      -0.35065157      -0.11275508
C        0.50731580      -0.83131010      -0.50665989
C       -0.54015914       0.26658868      -0.56788387
C       -2.61579532       0.01811892      -0.46415423
O       -2.40244641       1.06498736       0.39121941
C       -1.04288298       0.81486699       0.77190801
H        2.69365864       0.50283229       1.45365361
H        2.59725930      -1.18876091      -0.15656946
H        2.23276135       0.41521141      -0.82227422
H        0.19899981      -1.61208082       0.19525334
H        0.58748853      -1.31040906      -1.48702536
H       -0.16593921       1.10118349      -1.17197355
H       -2.60780089      -0.95269664       0.07385467
H       -1.58583336       0.08387128      -1.47781016
H       -0.55764204       1.72901682       1.10993946
H       -1.01841583       0.06752491       1.57231249
17
Frame=11 idx=007545 GeodesicLength=0.6551881242332886 rxn_smarts="[O:1]([C:2]([C:3]([C:4]1([H:13])[C:5]([H:14])([H:15])[O:6][C:7]1([H:16])[H:17])([H:11])[H:12])([H:9])[H:10])[H:8]>>[O:1]([C:2]([C:3]([C:4]([C:7]([O+:6]=[C-:5][H:14])([H:16])[H:17])([H:13])[H:15])([H:11])[H:12])([H:9])[H:10])[H:8]"
O        1.83112770       0.18019043       1.20278757
C        1.89363905      -0.34672520      -0.11124372
C        0.51146666      -0.83179741      -0.50581834
C       -0.54365409       0.26021247      -0.57119149
C       -2.62364890       0.02277188      -0.45784516
O       -2.39836583       1.06924547       0.39066395
C       -1.03779987       0.81028059       0.77066067
H        2.69619666       0.50274822       1.45726850
H        2.60333560      -1.18143680      -0.15931658
H        2.23087997       0.42350128      -0.81809335
H        0.20702190      -1.61446228       0.19585061
H        0.59511178      -1.31178246      -1.48551014
H       -0.16598917       1.09620698      -1.17131267
H       -2.63969873      -0.94698815       0.08158069
H       -1.59272781       0.08184434      -1.49779400
H       -0.54672190       1.72167304       1.10691877
H       -1.02017304       0.06451762       1.57239469
17
Frame=12 idx=007545 GeodesicLength=0.71480043945999 rxn_smarts="[O:1]([C:2]([C:3]([C:4]1([H:13])[C:5]([H:14])([H:15])[O:6][C:7]1([H:16])[H:17])([H:11])[H:12])([H:9])[H:10])[H:8]>>[O:1]([C:2]([C:3]([C:4]([C:7]([O+:6]=[C-:5][H:14])([H:16])[H:17])([H:13])[H:15])([H:11])[H:12])([H:9])[H:10])[H:8]"
O        1.83420746       0.17863364       1.20663571
C        1.89600042      -0.34274110      -0.10972044
C        0.51571770      -0.83231426      -0.50498356
C       -0.54712934       0.25366280      -0.57446105
C       -2.63142315       0.02735665      -0.45146521
O       -2.39420837       1.07340903       0.39001640
C       -1.03272372       0.80551427       0.76940311
H        2.69875881       0.50272072       1.46089419
H        2.60951462      -1.17395028      -0.16211620
H        2.22893056       0.43190009      -0.81383642
H        0.21522210      -1.61690613       0.19641192
H        0.60286461      -1.31311354      -1.48402064
H       -0.16611518       1.09103619      -1.17066990
H       -2.67228990      -0.94057098       0.08964584
H       -1.59953589       0.07982624      -1.51808616
H       -0.53584805       1.71412687       1.10387548
H       -1.02194268       0.06140979       1.57247693
17
Frame=13 idx=007545 GeodesicLength=0.7744139270642805 rxn_smarts="[O:1]([C:2]([C:3]([C:4]1([H:13])[C:5]([H:14])([H:15])[O:6][C:7]1([H:16])[H:17])([H:11])[H:12])([H:9])[H:10])[H:8]>>[O:1]([C:2]([C:3]([C:4]([C:7]([O+:6]=[C-:5][H:14])([H:16])[H:17])([H:13])[H:15])([H:11])[H:12])([H:9])[H:10])[H:8]"
O        1.83734643       0.17703765       1.21050832
C        1.89840855      -0.33869752      -0.10818545
C        0.52007062      -0.83286276      -0.50415512
C       -0.55058492       0.24693272      -0.57769053
C       -2.63911770       0.03185644      -0.44500362
O       -2.38997424       1.07747017       0.38927677
C       -1.02765579       0.80056314       0.76813703
H        2.70134437       0.50275152       1.46453045
H        2.61579693      -1.16629556      -0.16496921
H        2.22690771       0.44040937      -0.80950213
H        0.22360546      -1.61941425       0.19693770
H        0.61074935      -1.31440309      -1.48255699
H       -0.16632078       1.08566622      -1.17004578
H       -2.70557809      -0.93340760       0.09804569
H       -1.60625067       0.07782035      -1.53869866
H       -0.52502371       1.70637574       1.10081015
H       -1.02372352       0.05819746       1.57256138
17
Frame=14 idx=007545 GeodesicLength=0.8340309986114295 rxn_smarts="[O:1]([C:2]([C:3]([C:4]1([H:13])[C:5]([H:14])([H:15])[O:6][C:7]1([H:16])[H:17])([H:11])[H:12])([H:9])[H:10])[H:8]>>[O:1]([C:2]([C:3]([C:4]([C:7]([O+:6]=[C-:5][H:14])([H:16])[H:17])([H:13])[H:15])([H:11])[H:12])([H:9])[H:10])[H:8]"
O        1.84054469       0.17540344       1.21440447
C        1.90086321      -0.33459225      -0.10663869
C        0.52452820      -0.83344499      -0.50333423
C       -0.55402030       0.24001482      -0.58087945
C       -2.64673217       0.03624917      -0.43845064
O       -2.38566622       1.08141089       0.38844454
C       -1.02259802       0.79541977       0.76686239
H        2.70395246       0.50284065       1.46817911
H        2.62218401      -1.15846552      -0.16787622
H        2.22480650       0.44903166      -0.80508835
H        0.23217759      -1.62198923       0.19742558
H        0.61877080      -1.31565052      -1.48112136
H       -0.16660831       1.08009276      -1.16943982
H       -2.73957770      -0.92544424       0.10679271
H       -1.61285785       0.07583150      -1.55965011
H       -0.51425576       1.69841642       1.09772067
H       -1.02551115       0.05487568       1.57264941
17
Frame=15 idx=007545 GeodesicLength=0.8936463168625609 rxn_smarts="[O:1]([C:2]([C:3]([C:4]1([H:13])[C:5]([H:14])([H:15])[O:6][C:7]1([H:16])[H:17])([H:11])[H:12])([H:9])[H:10])[H:8]>>[O:1]([C:2]([C:3]([C:4]([C:7]([O+:6]=[C-:5][H:14])([H:16])[H:17])([H:13])[H:15])([H:11])[H:12])([H:9])[H:10])[H:8]"
O        1.84380233       0.17373253       1.21832312
C        1.90336366      -0.33042305      -0.10508035
C        0.52909261      -0.83406313      -0.50252121
C       -0.55743554       0.23290128      -0.58402663
C       -2.65426613       0.04051183      -0.43179395
O       -2.38128669       1.08521586       0.38751988
C       -1.01755222       0.79007753       0.76558007
H        2.70658245       0.50298801       1.47184122
H        2.62867672      -1.15045295      -0.17083820
H        2.22262101       0.45776906      -0.80059355
H        0.24094412      -1.62463327       0.19787486
H        0.62693242      -1.31685609      -1.47971464
H       -0.16698123       1.07431059      -1.16885223
H       -2.77429568      -0.91662899       0.11588871
H       -1.61934569       0.07386443      -1.58095618
H       -0.50355017       1.69024666       1.09460569
H       -1.02730197       0.05143970       1.57274342
17
Frame=16 idx=007545 GeodesicLength=0.9532563023193196 rxn_smarts="[O:1]([C:2]([C:3]([C:4]1([H:13])[C:5]([H:14])([H:15])[O:6][C:7]1([H:16])[H:17])([H:11])[H:12])([H:9])[H:10])[H:8]>>[O:1]([C:2]([C:3]([C:4]([C:7]([O+:6]=[C-:5][H:14])([H:16])[H:17])([H:13])[H:15])([H:11])[H:12])([H:9])[H:10])[H:8]"
O        1.84711947       0.17202631       1.22226342
C        1.90590916      -0.32618699      -0.10351058
C        0.53376649      -0.83471941      -0.50171665
C       -0.56083054       0.22558349      -0.58713099
C       -2.66171924       0.04461884      -0.42502027
O       -2.37683858       1.08886729       0.38650241
C       -1.01252011       0.78452905       0.76429062
H        2.70923397       0.50319222       1.47551902
H        2.63527628      -1.14224951      -0.17385670
H        2.22034468       0.46662498      -0.79601570
H        0.24991140      -1.62734879       0.19828427
H        0.63523846      -1.31801971      -1.47833819
H       -0.16744348       1.06831392      -1.16828328
H       -2.80974108      -0.90690270       0.12533724
H       -1.62570181       0.07192252      -1.60263370
H       -0.49291355       1.68186391       1.09146314
H       -1.02909152       0.04788457       1.57284593
