16
Frame=0 idx=002887 GeodesicLength=0.0 rxn_smarts="[C:1]([C@@:2]1([H:10])[C:3]([H:11])([H:12])[C@@:4]2([H:13])[C:5]([H:14])([H:15])[C@@:6]12[H:16])([H:7])([H:8])[H:9]>>[C:1]([C@@:2]1([H:10])[C:3]([H:11])([H:12])[C@:6]1([C:5]([C:4][H:13])([H:14])[H:15])[H:16])([H:7])([H:8])[H:9]"
C       -0.85055765      -0.92149210       1.41731060
C       -0.70801166       0.39887674       0.70517324
C        0.64464101       1.00058080       0.58365978
C        1.56072025       0.03037743      -1.10626885
C        0.32283243      -0.68808512      -1.50731161
C       -0.24235210       0.44028689      -0.71423874
H       -0.91480392      -0.76808626       2.49612811
H       -1.75045498      -1.44808165       1.09352967
H        0.00813917      -1.56674204       1.22531171
H       -1.51642791       1.09915787       0.88820969
H        0.72521289       2.07872263       0.55584393
H        1.45135671       0.50370746       1.09084908
H        1.69187550       0.88251387      -1.78995505
H        0.18648450      -1.68654844      -1.09616080
H       -0.00698101      -0.62975369      -2.54297555
H       -0.60167321       1.27456557      -1.29910521
16
Frame=1 idx=002887 GeodesicLength=0.046161755394078276 rxn_smarts="[C:1]([C@@:2]1([H:10])[C:3]([H:11])([H:12])[C@@:4]2([H:13])[C:5]([H:14])([H:15])[C@@:6]12[H:16])([H:7])([H:8])[H:9]>>[C:1]([C@@:2]1([H:10])[C:3]([H:11])([H:12])[C@:6]1([C:5]([C:4][H:13])([H:14])[H:15])[H:16])([H:7])([H:8])[H:9]"
C       -0.85566109      -0.92098245       1.41509326
C       -0.70300691       0.39828597       0.70313843
C        0.65352186       0.99547427       0.58250131
C        1.55123387       0.05208304      -1.10886190
C        0.32705849      -0.68989583      -1.50450200
C       -0.24671517       0.44177616      -0.72002785
H       -0.91911765      -0.76709428       2.49394830
H       -1.75927988      -1.44094013       1.09087018
H       -0.00144197      -1.57264429       1.22482374
H       -1.50525364       1.10428696       0.89280346
H        0.73555862       2.07410700       0.57057084
H        1.45532955       0.49376855       1.09422132
H        1.68681116       0.89401619      -1.80323747
H        0.20537626      -1.68586536      -1.08322232
H       -0.00359572      -0.64397334      -2.54041959
H       -0.62081777       1.26759753      -1.30769972
16
Frame=2 idx=002887 GeodesicLength=0.09229098946300517 rxn_smarts="[C:1]([C@@:2]1([H:10])[C:3]([H:11])([H:12])[C@@:4]2([H:13])[C:5]([H:14])([H:15])[C@@:6]12[H:16])([H:7])([H:8])[H:9]>>[C:1]([C@@:2]1([H:10])[C:3]([H:11])([H:12])[C@:6]1([C:5]([C:4][H:13])([H:14])[H:15])[H:16])([H:7])([H:8])[H:9]"
C       -0.86073861      -0.92037312       1.41287572
C       -0.69801174       0.39771950       0.70108753
C        0.66237613       0.99037500       0.58134944
C        1.54145308       0.07366215      -1.11153146
C        0.33138209      -0.69154807      -1.50162995
C       -0.25117417       0.44326877      -0.72580158
H       -0.92334651      -0.76599876       2.49176793
H       -1.76804371      -1.43367168       1.08826136
H       -0.01109100      -1.57844970       1.22426894
H       -1.49405807       1.10933680       0.89729400
H        0.74601263       2.06925147       0.58543369
H        1.45936708       0.48369893       1.09720042
H        1.68183109       0.90539316      -1.81618009
H        0.22426136      -1.68473467      -1.07033759
H        0.00014222      -0.65801711      -2.53772912
H       -0.64036188       1.26008733      -1.31632925
16
Frame=3 idx=002887 GeodesicLength=0.1384120250942001 rxn_smarts="[C:1]([C@@:2]1([H:10])[C:3]([H:11])([H:12])[C@@:4]2([H:13])[C:5]([H:14])([H:15])[C@@:6]12[H:16])([H:7])([H:8])[H:9]>>[C:1]([C@@:2]1([H:10])[C:3]([H:11])([H:12])[C@:6]1([C:5]([C:4][H:13])([H:14])[H:15])[H:16])([H:7])([H:8])[H:9]"
C       -0.86580379      -0.91966840       1.41066226
C       -0.69302621       0.39717926       0.69902261
C        0.67121474       0.98528008       0.58020062
C        1.53138434       0.09514284      -1.11427858
C        0.33581061      -0.69303693      -1.49869596
C       -0.25573783       0.44476108      -0.73156434
H       -0.92749338      -0.76481059       2.48959536
H       -1.77677753      -1.42626611       1.08571302
H       -0.02082785      -1.58417152       1.22364745
H       -1.48283580       1.11432183       0.90168317
H        0.75660100       2.06414967       0.60042501
H        1.46348346       0.47348657       1.09978739
H        1.67693898       0.91668315      -1.82879899
H        0.24315502      -1.68315927      -1.05748996
H        0.00424060      -0.67188844      -2.53491272
H       -0.66032636       1.25199678      -1.32499634
16
Frame=4 idx=002887 GeodesicLength=0.1845057698039712 rxn_smarts="[C:1]([C@@:2]1([H:10])[C:3]([H:11])([H:12])[C@@:4]2([H:13])[C:5]([H:14])([H:15])[C@@:6]12[H:16])([H:7])([H:8])[H:9]>>[C:1]([C@@:2]1([H:10])[C:3]([H:11])([H:12])[C@:6]1([C:5]([C:4][H:13])([H:14])[H:15])[H:16])([H:7])([H:8])[H:9]"
C       -0.87084001      -0.91886718       1.40845600
C       -0.68805598       0.39666551       0.69694018
C        0.68002554       0.98019996       0.57904963
C        1.52102053       0.11649349      -1.11706565
C        0.34033057      -0.69435499      -1.49570877
C       -0.26041406       0.44625358      -0.73731847
H       -0.93152263      -0.76353039       2.48743405
H       -1.78546445      -1.41873019       1.08324866
H       -0.03063477      -1.58979949       1.22294224
H       -1.47160945       1.11922926       0.90595645
H        0.76730411       2.05880592       0.61551609
H        1.46766681       0.46315628       1.10199256
H        1.67217674       0.92785025      -1.84105532
H        0.26199234      -1.68114104      -1.04471345
H        0.00870814      -0.68554529      -2.53198339
H       -0.68068343       1.24331434      -1.33369080
16
Frame=5 idx=002887 GeodesicLength=0.23058819757613055 rxn_smarts="[C:1]([C@@:2]1([H:10])[C:3]([H:11])([H:12])[C@@:4]2([H:13])[C:5]([H:14])([H:15])[C@@:6]12[H:16])([H:7])([H:8])[H:9]>>[C:1]([C@@:2]1([H:10])[C:3]([H:11])([H:12])[C@:6]1([C:5]([C:4][H:13])([H:14])[H:15])[H:16])([H:7])([H:8])[H:9]"
C       -0.87585843      -0.91796555       1.40625455
C       -0.68309802       0.39618244       0.69484290
C        0.68881686       0.97512559       0.57789431
C        1.51036055       0.13774344      -1.11989917
C        0.34495346      -0.69549804      -1.49266694
C       -0.26520950       0.44773965      -0.74306430
H       -0.93543819      -0.76215735       2.48528268
H       -1.79412614      -1.41104137       1.08086789
H       -0.04053592      -1.59534185       1.22214288
H       -1.46036443       1.12407826       0.91012404
H        0.77813838       2.05320376       0.63071012
H        1.47192341       0.45268885       1.10381310
H        1.66753056       0.93892650      -1.85296236
H        0.28080626      -1.67867763      -1.03199272
H        0.01355310      -0.69899948      -2.52894191
H       -0.70145195       1.23399278      -1.34240507
16
Frame=6 idx=002887 GeodesicLength=0.27667437644124715 rxn_smarts="[C:1]([C@@:2]1([H:10])[C:3]([H:11])([H:12])[C@@:4]2([H:13])[C:5]([H:14])([H:15])[C@@:6]12[H:16])([H:7])([H:8])[H:9]>>[C:1]([C@@:2]1([H:10])[C:3]([H:11])([H:12])[C@:6]1([C:5]([C:4][H:13])([H:14])[H:15])[H:16])([H:7])([H:8])[H:9]"
C       -0.88087018      -0.91696066       1.40405429
C       -0.67814890       0.39573441       0.69273201
C        0.69759712       0.97005022       0.57672996
C        1.49940156       0.15892204      -1.12278438
C        0.34969108      -0.69646197      -1.48956651
C       -0.27013099       0.44921364      -0.74880201
H       -0.93924715      -0.76069236       2.48313800
H       -1.80278442      -1.40317957       1.07857133
H       -0.05055399      -1.60080655       1.22123924
H       -1.44908802       1.12888531       0.91419273
H        0.78912209       2.04732959       0.64601098
H        1.47625964       0.44206693       1.10524107
H        1.66298669       0.94994130      -1.86453326
H        0.29963045      -1.67576846      -1.01931444
H        0.01877971      -0.71226200      -2.52578137
H       -0.72264470       1.22398812      -1.35112764
16
Frame=7 idx=002887 GeodesicLength=0.3227465726376702 rxn_smarts="[C:1]([C@@:2]1([H:10])[C:3]([H:11])([H:12])[C@@:4]2([H:13])[C:5]([H:14])([H:15])[C@@:6]12[H:16])([H:7])([H:8])[H:9]>>[C:1]([C@@:2]1([H:10])[C:3]([H:11])([H:12])[C@:6]1([C:5]([C:4][H:13])([H:14])[H:15])[H:16])([H:7])([H:8])[H:9]"
C       -0.88585651      -0.91585173       1.40186085
C       -0.67321667       0.39532036       0.69060362
C        0.70635163       0.96498530       0.57555155
C        1.48813694       0.17999310      -1.12568113
C        0.35452503      -0.69723887      -1.48642110
C       -0.27518895       0.45067463      -0.75453585
H       -0.94290833      -0.75913567       2.48100679
H       -1.81141798      -1.39515550       1.07638398
H       -0.06066829      -1.60618107       1.22021628
H       -1.43780317       1.13363724       0.91814947
H        0.80023353       2.04118926       0.66138279
H        1.48066003       0.43132188       1.10629161
H        1.65859900       0.96085692      -1.87571929
H        0.31838547      -1.67241850      -1.00671453
H        0.02439796      -0.72528487      -2.52252622
H       -0.74422967       1.21328751      -1.35984880
16
Frame=8 idx=002887 GeodesicLength=0.36882414168900146 rxn_smarts="[C:1]([C@@:2]1([H:10])[C:3]([H:11])([H:12])[C@@:4]2([H:13])[C:5]([H:14])([H:15])[C@@:6]12[H:16])([H:7])([H:8])[H:9]>>[C:1]([C@@:2]1([H:10])[C:3]([H:11])([H:12])[C@:6]1([C:5]([C:4][H:13])([H:14])[H:15])[H:16])([H:7])([H:8])[H:9]"
C       -0.89083037      -0.91463761       1.39966981
C       -0.66829741       0.39494457       0.68845931
C        0.71509055       0.95992361       0.57435402
C        1.47656258       0.20098882      -1.12859665
C        0.35946857      -0.69782299      -1.48322568
C       -0.28039045       0.45211539      -0.76026512
H       -0.94642628      -0.75749199       2.47888448
H       -1.82005523      -1.38694489       1.07431185
H       -0.07090570      -1.61147579       1.21905975
H       -1.42649497       1.13835294       0.92199920
H        0.81149231       2.03476989       0.67682589
H        1.48513177       0.42043648       1.10695807
H        1.65435051       0.97170479      -1.88653274
H        0.33710723      -1.66862354      -0.99417768
H        0.03041608      -0.73807951      -2.51916901
H       -0.76621919       1.20183982      -1.36855549
16
Frame=9 idx=002887 GeodesicLength=0.4148876836881784 rxn_smarts="[C:1]([C@@:2]1([H:10])[C:3]([H:11])([H:12])[C@@:4]2([H:13])[C:5]([H:14])([H:15])[C@@:6]12[H:16])([H:7])([H:8])[H:9]>>[C:1]([C@@:2]1([H:10])[C:3]([H:11])([H:12])[C@:6]1([C:5]([C:4][H:13])([H:14])[H:15])[H:16])([H:7])([H:8])[H:9]"
C       -0.89577161      -0.91331734       1.39748904
C       -0.66340223       0.39460567       0.68629359
C        0.72379671       0.95487856       0.57313142
C        1.46467516       0.22187090      -1.13149014
C        0.36450076      -0.69820798      -1.47999651
C       -0.28574718       0.45353509      -0.76599593
H       -0.94975171      -0.75576184       2.47678090
H       -1.82867563      -1.37855852       1.07238754
H       -0.08124548      -1.61668014       1.21775140
H       -1.41519327       1.14301661       0.92572813
H        0.82287237       2.02808101       0.69230269
H        1.48965649       0.40944620       1.10725705
H        1.65030523       0.98244380      -1.89692103
H        0.35571271      -1.66439726      -0.98174338
H        0.03684185      -0.75059610      -2.51573916
H       -0.78857419       1.18964134      -1.37723560
16
Frame=10 idx=002887 GeodesicLength=0.46095769972211326 rxn_smarts="[C:1]([C@@:2]1([H:10])[C:3]([H:11])([H:12])[C@@:4]2([H:13])[C:5]([H:14])([H:15])[C@@:6]12[H:16])([H:7])([H:8])[H:9]>>[C:1]([C@@:2]1([H:10])[C:3]([H:11])([H:12])[C@:6]1([C:5]([C:4][H:13])([H:14])[H:15])[H:16])([H:7])([H:8])[H:9]"
C       -0.90069008      -0.91188799       1.39531551
C       -0.65852682       0.39430764       0.68410726
C        0.73247826       0.94984423       0.57187862
C        1.45246729       0.24266581      -1.13436618
C        0.36963245      -0.69838846      -1.47673206
C       -0.29126638       0.45492520      -0.77172842
H       -0.95288232      -0.75394773       2.47469343
H       -1.83730245      -1.36996944       1.07061553
H       -0.09171328      -1.62180289       1.21627589
H       -1.40388391       1.14764478       0.92934054
H        0.83438593       2.02111134       0.70781402
H        1.49423887       0.39833874       1.10718357
H        1.64645013       0.99309765      -1.90688622
H        0.37422925      -1.65973631      -0.96940331
H        0.04368464      -0.76284112      -2.51223380
H       -0.81130157       1.17663854      -1.38587436
16
Frame=11 idx=002887 GeodesicLength=0.5070162006449274 rxn_smarts="[C:1]([C@@:2]1([H:10])[C:3]([H:11])([H:12])[C@@:4]2([H:13])[C:5]([H:14])([H:15])[C@@:6]12[H:16])([H:7])([H:8])[H:9]>>[C:1]([C@@:2]1([H:10])[C:3]([H:11])([H:12])[C@:6]1([C:5]([C:4][H:13])([H:14])[H:15])[H:16])([H:7])([H:8])[H:9]"
C       -0.90556730      -0.91035208       1.39315654
C       -0.65368146       0.39404860       0.68189538
C        0.74112048       0.94483444       0.57058895
C        1.43993690       0.26333726      -1.13718919
C        0.37483990      -0.69835800      -1.47344776
C       -0.29695954       0.45628512      -0.77746756
H       -0.95578303      -0.75205331       2.47262949
H       -1.84591212      -1.36119692       1.06902013
H       -0.10228267      -1.62683117       1.21462631
H       -1.39259353       1.15222447       0.93282461
H        0.84600629       2.01387461       0.72331853
H        1.49886405       0.38715087       1.10675373
H        1.64285142       1.00362497      -1.91637878
H        0.39257447      -1.65465645      -0.95719219
H        0.05094135      -0.77476441      -2.50868034
H       -0.83435522       1.16283199      -1.39445786
16
Frame=12 idx=002887 GeodesicLength=0.5530480522756184 rxn_smarts="[C:1]([C@@:2]1([H:10])[C:3]([H:11])([H:12])[C@@:4]2([H:13])[C:5]([H:14])([H:15])[C@@:6]12[H:16])([H:7])([H:8])[H:9]>>[C:1]([C@@:2]1([H:10])[C:3]([H:11])([H:12])[C@:6]1([C:5]([C:4][H:13])([H:14])[H:15])[H:16])([H:7])([H:8])[H:9]"
C       -0.91038533      -0.90871262       1.39101807
C       -0.64887544       0.39382694       0.67965290
C        0.74970943       0.93986300       0.56925601
C        1.42708093       0.28385166      -1.13992720
C        0.38009908      -0.69811202      -1.47015843
C       -0.30283750       0.45761404      -0.78321788
H       -0.95842398      -0.75008233       2.47059467
H       -1.85448038      -1.35226148       1.06762069
H       -0.11292625      -1.63175231       1.21279813
H       -1.38134676       1.15674434       0.93617012
H        0.85770466       2.00638697       0.73877567
H        1.50351766       0.37591903       1.10598412
H        1.63957035       1.01398235      -1.92535063
H        0.41067385      -1.64917589      -0.94514447
H        0.05860255      -0.78632189      -2.50510379
H       -0.85768286       1.14823020      -1.40296798
16
Frame=13 idx=002887 GeodesicLength=0.5990393022772026 rxn_smarts="[C:1]([C@@:2]1([H:10])[C:3]([H:11])([H:12])[C@@:4]2([H:13])[C:5]([H:14])([H:15])[C@@:6]12[H:16])([H:7])([H:8])[H:9]>>[C:1]([C@@:2]1([H:10])[C:3]([H:11])([H:12])[C@:6]1([C:5]([C:4][H:13])([H:14])[H:15])[H:16])([H:7])([H:8])[H:9]"
C       -0.91512889      -0.90697544       1.38890645
C       -0.64411842       0.39364002       0.67737472
C        0.75823329       0.93494244       0.56787313
C        1.41389899       0.30418193      -1.14255642
C        0.38538595      -0.69764658      -1.46687676
C       -0.30891169       0.45891019      -0.78898477
H       -0.96078404      -0.74804172       2.46859459
H       -1.86298487      -1.34318963       1.06643184
H       -0.12361556      -1.63655431       1.21079421
H       -1.37016834       1.16119305       0.93936717
H        0.86945299       1.99866656       0.75414418
H        1.50818849       0.36467871       1.10489212
H        1.63666382       1.02412456      -1.93376060
H        0.42846456      -1.64331447      -0.93328874
H        0.06664769      -0.79747414      -2.50152277
H       -0.88122396       1.13285884      -1.41138833
16
Frame=14 idx=002887 GeodesicLength=0.6450027455332533 rxn_smarts="[C:1]([C@@:2]1([H:10])[C:3]([H:11])([H:12])[C@@:4]2([H:13])[C:5]([H:14])([H:15])[C@@:6]12[H:16])([H:7])([H:8])[H:9]>>[C:1]([C@@:2]1([H:10])[C:3]([H:11])([H:12])[C@:6]1([C:5]([C:4][H:13])([H:14])[H:15])[H:16])([H:7])([H:8])[H:9]"
C       -0.91980387      -0.90513346       1.38681735
C       -0.63940807       0.39349209       0.67506226
C        0.76669343       0.93006603       0.56643582
C        1.40038439       0.32435184      -1.14508155
C        0.39070609      -0.69695731      -1.46360510
C       -0.31518931       0.46016481      -0.79476587
H       -0.96285628      -0.74592814       2.46662357
H       -1.87143972      -1.33395123       1.06546143
H       -0.13437313      -1.64124092       1.20859652
H       -1.35904542       1.16558679       0.94242505
H        0.88125864       1.99070102       0.76942645
H        1.51287146       0.35341767       1.10347058
H        1.63413560       1.03407463      -1.94160121
H        0.44596740      -1.63707865      -0.92161838
H        0.07508501      -0.80822459      -2.49794609
H       -0.90498623       1.11665943      -1.41970081
16
Frame=15 idx=002887 GeodesicLength=0.6909354060741095 rxn_smarts="[C:1]([C@@:2]1([H:10])[C:3]([H:11])([H:12])[C@@:4]2([H:13])[C:5]([H:14])([H:15])[C@@:6]12[H:16])([H:7])([H:8])[H:9]>>[C:1]([C@@:2]1([H:10])[C:3]([H:11])([H:12])[C@:6]1([C:5]([C:4][H:13])([H:14])[H:15])[H:16])([H:7])([H:8])[H:9]"
C       -0.92439554      -0.90319672       1.38475786
C       -0.63475272       0.39338002       0.67270730
C        0.77508072       0.92525030       0.56493248
C        1.38653373       0.34433645      -1.14747980
C        0.39603314      -0.69604245      -1.46035330
C       -0.32168057       0.46137637      -0.80056799
H       -0.96463101      -0.74375328       2.46468717
H       -1.87982156      -1.32458277       1.06471840
H       -0.14516719      -1.64580297       1.20621161
H       -1.34800206       1.16991131       0.94532927
H        0.89309734       1.98251681       0.78457151
H        1.51755946       0.34217785       1.10173494
H        1.63204078       1.04378146      -1.94882294
H        0.46312419      -1.63049216      -0.91016360
H        0.08388226      -0.81853860      -2.49438139
H       -0.92890095       1.09967837      -1.42788151
16
Frame=16 idx=002887 GeodesicLength=0.736842498247316 rxn_smarts="[C:1]([C@@:2]1([H:10])[C:3]([H:11])([H:12])[C@@:4]2([H:13])[C:5]([H:14])([H:15])[C@@:6]12[H:16])([H:7])([H:8])[H:9]>>[C:1]([C@@:2]1([H:10])[C:3]([H:11])([H:12])[C@:6]1([C:5]([C:4][H:13])([H:14])[H:15])[H:16])([H:7])([H:8])[H:9]"
C       -0.92890884      -0.90116037       1.38272992
C       -0.63015607       0.39330569       0.67031112
C        0.78339248       0.92049090       0.56336019
C        1.37234496       0.36415336      -1.14975731
C        0.40137061      -0.69489660      -1.45712925
C       -0.32839580       0.46253444      -0.80639282
H       -0.96608085      -0.74152023       2.46278921
H       -1.88815020      -1.31505310       1.06422740
H       -0.15602170      -1.65024649       1.20362122
H       -1.33703825       1.17417704       0.94808604
H        0.90496698       1.97410649       0.79957918
H        1.52224635       0.33095421       1.09968545
H        1.63039797       1.05325758      -1.95541497
H        0.47994628      -1.62356288      -0.89892278
H        0.09304930      -0.82841006      -2.49084936
H       -0.95296321       1.08187002      -1.43592326
