14
Frame=0 idx=010528 GeodesicLength=0.0 rxn_smarts="[C:1](/[C:2](=[N:3]\[H:11])[O:4][C:5]([C:6](=[O:7])[H:14])([H:12])[H:13])([H:8])([H:9])[H:10]>>[C:1]([C:2]([N:3]([O:7][C:6](=[C:5]([H:12])[H:13])[H:14])[H:11])=[O:4])([H:8])([H:9])[H:10]"
C       -1.93733047       0.02040820       0.12576548
C       -0.67868184       0.02595768      -0.70443245
N       -0.09927118       1.17647452      -1.09129649
O       -0.05920910      -1.03372074      -0.92501057
C        1.48992131      -1.00007451       0.62264752
C        1.92243268       0.20998386       0.14047139
O        1.19519080       1.24598073       0.29302755
H       -1.68080031       0.27762652       1.15793025
H       -2.65832189       0.75705403      -0.23102831
H       -2.39288481      -0.96760564       0.11121832
H       -0.62591838       1.97923308      -0.75229141
H        0.69516799      -1.04409621       1.35342152
H        2.05130257      -1.90663969       0.43633473
H        2.77840262       0.25941819      -0.53675758
14
Frame=1 idx=010528 GeodesicLength=0.09367027122836782 rxn_smarts="[C:1](/[C:2](=[N:3]\[H:11])[O:4][C:5]([C:6](=[O:7])[H:14])([H:12])[H:13])([H:8])([H:9])[H:10]>>[C:1]([C:2]([N:3]([O:7][C:6](=[C:5]([H:12])[H:13])[H:14])[H:11])=[O:4])([H:8])([H:9])[H:10]"
C       -1.97100362       0.01219212       0.10905257
C       -0.68248729       0.02597374      -0.67300801
N       -0.10153682       1.17697800      -1.04724105
O       -0.06362825      -1.03660415      -0.88982139
C        1.50445115      -0.98766172       0.62383606
C        1.95771276       0.20630995       0.11472837
O        1.26212857       1.26346477       0.27095880
H       -1.74666692       0.21885002       1.15963191
H       -2.66665632       0.77624300      -0.23995326
H       -2.44523280      -0.96458657       0.03613375
H       -0.62763600       1.98079007      -0.71157530
H        0.73192124      -0.99640512       1.37974555
H        2.06445474      -1.90073005       0.46745511
H        2.78417955       0.22518594      -0.59994311
14
Frame=2 idx=010528 GeodesicLength=0.1814242629334884 rxn_smarts="[C:1](/[C:2](=[N:3]\[H:11])[O:4][C:5]([C:6](=[O:7])[H:14])([H:12])[H:13])([H:8])([H:9])[H:10]>>[C:1]([C:2]([N:3]([O:7][C:6](=[C:5]([H:12])[H:13])[H:14])[H:11])=[O:4])([H:8])([H:9])[H:10]"
C       -2.00278896       0.00372204       0.09213712
C       -0.68710318       0.02578310      -0.64230243
N       -0.10377139       1.17761326      -1.00136833
O       -0.06810400      -1.03943099      -0.85465384
C        1.51747723      -0.97422329       0.62584290
C        1.99122391       0.20172049       0.08781217
O        1.32861423       1.28001800       0.24416146
H       -1.81123659       0.15694713       1.15798657
H       -2.67361843       0.79494574      -0.24432896
H       -2.49285418      -0.95896681      -0.04129446
H       -0.62938793       1.98218108      -0.66844481
H        0.76799170      -0.94633872       1.40462573
H        2.07638888      -1.89285433       0.50094386
H        2.78716869       0.18888328      -0.66111697
14
Frame=3 idx=010528 GeodesicLength=0.26417236351385187 rxn_smarts="[C:1](/[C:2](=[N:3]\[H:11])[O:4][C:5]([C:6](=[O:7])[H:14])([H:12])[H:13])([H:8])([H:9])[H:10]>>[C:1]([C:2]([N:3]([O:7][C:6](=[C:5]([H:12])[H:13])[H:14])[H:11])=[O:4])([H:8])([H:9])[H:10]"
C       -2.03281593      -0.00493415       0.07496088
C       -0.69247951       0.02532188      -0.61242915
N       -0.10586261       1.17827486      -0.95337234
O       -0.07264599      -1.04229623      -0.81936166
C        1.52914263      -0.95966551       0.62864811
C        2.02293385       0.19616679       0.05975707
O        1.39439730       1.29535434       0.21233676
H       -1.87459468       0.09202457       1.15252717
H       -2.67943034       0.81297625      -0.24418350
H       -2.53582986      -0.95030833      -0.12082913
H       -0.63103629       1.98322694      -0.62244178
H        0.80345390      -0.89385768       1.42791235
H        2.08727394      -1.88272532       0.53671559
H        2.78749360       0.15044160      -0.72024038
14
Frame=4 idx=010528 GeodesicLength=0.3427297247577635 rxn_smarts="[C:1](/[C:2](=[N:3]\[H:11])[O:4][C:5]([C:6](=[O:7])[H:14])([H:12])[H:13])([H:8])([H:9])[H:10]>>[C:1]([C:2]([N:3]([O:7][C:6](=[C:5]([H:12])[H:13])[H:14])[H:11])=[O:4])([H:8])([H:9])[H:10]"
C       -2.06121896      -0.01367680       0.05744532
C       -0.69858617       0.02453192      -0.58351838
N       -0.10773036       1.17885495      -0.90296883
O       -0.07730040      -1.04535337      -0.78376438
C        1.53965367      -0.94394769       0.63223467
C        2.05281235       0.18962154       0.03064682
O        1.45911376       1.30920581       0.17522648
H       -1.93680847       0.02436271       1.14279917
H       -2.68432996       0.83015988      -0.23967102
H       -2.57424210      -0.93822245      -0.20217497
H       -0.63247356       1.98378723      -0.57312677
H        0.83846434      -0.83902077       1.44948808
H        2.09738735      -1.87012233       0.57461460
H        2.78525852       0.10981937      -0.77723079
14
Frame=5 idx=010528 GeodesicLength=0.41768319192120285 rxn_smarts="[C:1](/[C:2](=[N:3]\[H:11])[O:4][C:5]([C:6](=[O:7])[H:14])([H:12])[H:13])([H:8])([H:9])[H:10]>>[C:1]([C:2]([N:3]([O:7][C:6](=[C:5]([H:12])[H:13])[H:14])[H:11])=[O:4])([H:8])([H:9])[H:10]"
C       -2.08807231      -0.02234995       0.03952901
C       -0.70537731       0.02337092      -0.55573231
N       -0.10930968       1.17923592      -0.84994465
O       -0.08211664      -1.04878238      -0.74766893
C        1.54924243      -0.92712710       0.63653324
C        2.08077803       0.18208417       0.00067590
O        1.52214781       1.32126757       0.13275714
H       -1.99790880      -0.04526979       1.12841819
H       -2.68852652       0.84624321      -0.23124066
H       -2.60803543      -0.92249788      -0.28469294
H       -0.63365529       1.98376868      -0.52020680
H        0.87317220      -0.78213704       1.46921159
H        2.10707103      -1.85492048       0.61420783
H        2.78059049       0.06711418      -0.83184663
14
Frame=6 idx=010528 GeodesicLength=0.48956390628017155 rxn_smarts="[C:1](/[C:2](=[N:3]\[H:11])[O:4][C:5]([C:6](=[O:7])[H:14])([H:12])[H:13])([H:8])([H:9])[H:10]>>[C:1]([C:2]([N:3]([O:7][C:6](=[C:5]([H:12])[H:13])[H:14])[H:11])=[O:4])([H:8])([H:9])[H:10]"
C       -2.11348275      -0.03073463       0.02110778
C       -0.71274657       0.02174797      -0.52910576
N       -0.11041825       1.17908192      -0.79405850
O       -0.08718147      -1.05277829      -0.71064360
C        1.55817771      -0.90925677       0.64142703
C        2.10674964       0.17364759      -0.02993615
O        1.58275283       1.33118000       0.08501638
H       -2.05795337      -0.11617227       1.10892362
H       -2.69216555       0.86107663      -0.21934213
H       -2.63733122      -0.90272078      -0.36787448
H       -0.63440439       1.98281436      -0.46353731
H        0.90782039      -0.72362941       1.48695717
H        2.11682320      -1.83690334       0.65508386
H        2.77335980       0.02264701      -0.88401791
14
Frame=7 idx=010528 GeodesicLength=0.5588545724714472 rxn_smarts="[C:1](/[C:2](=[N:3]\[H:11])[O:4][C:5]([C:6](=[O:7])[H:14])([H:12])[H:13])([H:8])([H:9])[H:10]>>[C:1]([C:2]([N:3]([O:7][C:6](=[C:5]([H:12])[H:13])[H:14])[H:11])=[O:4])([H:8])([H:9])[H:10]"
C       -2.13754051      -0.03855494       0.00207420
C       -0.72055936       0.01958587      -0.50352024
N       -0.11093091       1.17801820      -0.73517700
O       -0.09261518      -1.05758254      -0.67208516
C        1.56683483      -0.89051239       0.64679030
C        2.13064479       0.16445485      -0.06090510
O        1.63999598       1.33864031       0.03236114
H       -2.11711866      -0.18733727       1.08398995
H       -2.69534722       0.87458260      -0.20468681
H       -2.66217560      -0.87862850      -0.45116827
H       -0.63464991       1.98063119      -0.40329388
H        0.94279653      -0.66415324       1.50270846
H        2.12730243      -1.81601985       0.69658852
H        2.76336277      -0.02312429      -0.93367612
14
Frame=8 idx=010528 GeodesicLength=0.6259826884882554 rxn_smarts="[C:1](/[C:2](=[N:3]\[H:11])[O:4][C:5]([C:6](=[O:7])[H:14])([H:12])[H:13])([H:8])([H:9])[H:10]>>[C:1]([C:2]([N:3]([O:7][C:6](=[C:5]([H:12])[H:13])[H:14])[H:11])=[O:4])([H:8])([H:9])[H:10]"
C       -2.16031300      -0.04548891      -0.01766168
C       -0.72863229       0.01681425      -0.47865013
N       -0.11073588       1.17561280      -0.67329430
O       -0.09855464      -1.06343928      -0.63119279
C        1.57565594      -0.87119868       0.65247725
C        2.15237933       0.15471244      -0.09190118
O        1.69280628       1.34341104      -0.02448757
H       -2.17568381      -0.25757462       1.05343251
H       -2.69813094       0.88677548      -0.18815574
H       -2.68253255      -0.85006501      -0.53401817
H       -0.63442631       1.97697238      -0.34017069
H        0.97859268      -0.60461407       1.51656354
H        2.13930400      -1.79238790       0.73787960
H        2.75027118      -0.06952994      -0.98082066
14
Frame=9 idx=010528 GeodesicLength=0.6911427006388562 rxn_smarts="[C:1](/[C:2](=[N:3]\[H:11])[O:4][C:5]([C:6](=[O:7])[H:14])([H:12])[H:13])([H:8])([H:9])[H:10]>>[C:1]([C:2]([N:3]([O:7][C:6](=[C:5]([H:12])[H:13])[H:14])[H:11])=[O:4])([H:8])([H:9])[H:10]"
C       -2.18171854      -0.05118441      -0.03802602
C       -0.73672923       0.01340830      -0.45415073
N       -0.10972934       1.17148748      -0.60868246
O       -0.10511375      -1.07050854      -0.58730623
C        1.58500339      -0.85190835       0.65821732
C        2.17182085       0.14472152      -0.12240267
O        1.73998630       1.34538287      -0.08399034
H       -2.23369615      -0.32502033       1.01751239
H       -2.70055054       0.89764646      -0.17103387
H       -2.69814434      -0.81743223      -0.61523854
H       -0.63404956       1.97185058      -0.27593605
H        1.01552476      -0.54650967       1.52862805
H        2.15357583      -1.76650963       0.77769198
H        2.73382031      -0.11542405      -1.02528282
14
Frame=10 idx=010528 GeodesicLength=0.754795920381478 rxn_smarts="[C:1](/[C:2](=[N:3]\[H:11])[O:4][C:5]([C:6](=[O:7])[H:14])([H:12])[H:13])([H:8])([H:9])[H:10]>>[C:1]([C:2]([N:3]([O:7][C:6](=[C:5]([H:12])[H:13])[H:14])[H:11])=[O:4])([H:8])([H:9])[H:10]"
C       -2.20179619      -0.05542504      -0.05909768
C       -0.74461602       0.00933744      -0.42903488
N       -0.10790288       1.16532822      -0.54130086
O       -0.11245683      -1.07890251      -0.53918308
C        1.59537292      -0.83305532       0.66396972
C        2.18893973       0.13468511      -0.15223908
O        1.78079090       1.34461563      -0.14496886
H       -2.29168825      -0.38906099       0.97621288
H       -2.70258863       0.90743276      -0.15403935
H       -2.70877202      -0.78070617      -0.69492894
H       -0.63385499       1.96546149      -0.21243577
H        1.05436649      -0.49070358       1.53937106
H        2.17090593      -1.73884495       0.81516578
H        2.71329984      -0.16016210      -1.06749095
14
Frame=11 idx=010528 GeodesicLength=0.8171544994014884 rxn_smarts="[C:1](/[C:2](=[N:3]\[H:11])[O:4][C:5]([C:6](=[O:7])[H:14])([H:12])[H:13])([H:8])([H:9])[H:10]>>[C:1]([C:2]([N:3]([O:7][C:6](=[C:5]([H:12])[H:13])[H:14])[H:11])=[O:4])([H:8])([H:9])[H:10]"
C       -2.22038764      -0.05807441      -0.08077121
C       -0.75207067       0.00465363      -0.40235074
N       -0.10528797       1.15703389      -0.47098381
O       -0.12068660      -1.08853099      -0.48588048
C        1.60705345      -0.81524057       0.66959401
C        2.20361715       0.12478527      -0.18117942
O        1.81461504       1.34129731      -0.20573770
H       -2.34980351      -0.44879791       0.92980277
H       -2.70425328       0.91622152      -0.13797869
H       -2.71380379      -0.74034575      -0.77266050
H       -0.63453163       1.95846220      -0.15257863
H        1.09561723      -0.43836409       1.54919261
H        2.19178217      -1.71018899       0.84919471
H        2.68814006      -0.20291111      -1.10766293
14
Frame=12 idx=010528 GeodesicLength=0.8784922117597871 rxn_smarts="[C:1](/[C:2](=[N:3]\[H:11])[O:4][C:5]([C:6](=[O:7])[H:14])([H:12])[H:13])([H:8])([H:9])[H:10]>>[C:1]([C:2]([N:3]([O:7][C:6](=[C:5]([H:12])[H:13])[H:14])[H:11])=[O:4])([H:8])([H:9])[H:10]"
C       -2.23729863      -0.05915171      -0.10295416
C       -0.75893357      -0.00050833      -0.37296550
N       -0.10201579       1.14673901      -0.39691726
O       -0.12989533      -1.09914393      -0.42640494
C        1.62025872      -0.79899007       0.67503629
C        2.21571490       0.11508940      -0.20917392
O        1.84121165       1.33573661      -0.26481833
H       -2.40811104      -0.50400411       0.87837689
H       -2.70560703       0.92405373      -0.12327721
H       -2.71242810      -0.69675949      -0.84838653
H       -0.63683226       1.95186842      -0.09975966
H        1.13987136      -0.39032527       1.55858777
H        2.21645973      -1.68143374       0.87881352
H        2.65760539      -0.24317052      -1.14615698
14
Frame=13 idx=010528 GeodesicLength=0.9386109754591432 rxn_smarts="[C:1](/[C:2](=[N:3]\[H:11])[O:4][C:5]([C:6](=[O:7])[H:14])([H:12])[H:13])([H:8])([H:9])[H:10]>>[C:1]([C:2]([N:3]([O:7][C:6](=[C:5]([H:12])[H:13])[H:14])[H:11])=[O:4])([H:8])([H:9])[H:10]"
C       -2.25204685      -0.05879123      -0.12531296
C       -0.76504303      -0.00594441      -0.34044964
N       -0.09828709       1.13469533      -0.31818720
O       -0.14007707      -1.11027545      -0.36060763
C        1.63466742      -0.78489426       0.68008900
C        2.22474498       0.10577439      -0.23606773
O        1.86024001       1.32846729      -0.32061294
H       -2.46569704      -0.55414346       0.82253495
H       -2.70664914       0.93078542      -0.11035308
H       -2.70384192      -0.65091476      -0.92127466
H       -0.64091654       1.94659401      -0.05776552
H        1.18699575      -0.34768107       1.56778524
H        2.24456384      -1.65356179       0.90309138
H        2.62134668      -0.28011002      -1.18286921
14
Frame=14 idx=010528 GeodesicLength=0.9978078918693661 rxn_smarts="[C:1](/[C:2](=[N:3]\[H:11])[O:4][C:5]([C:6](=[O:7])[H:14])([H:12])[H:13])([H:8])([H:9])[H:10]>>[C:1]([C:2]([N:3]([O:7][C:6](=[C:5]([H:12])[H:13])[H:14])[H:11])=[O:4])([H:8])([H:9])[H:10]"
C       -2.26438045      -0.05723078      -0.14838900
C       -0.77041745      -0.01156467      -0.30450202
N       -0.09473031       1.12127122      -0.23430336
O       -0.15141805      -1.12167438      -0.28735876
C        1.65003422      -0.77252635       0.68489320
C        2.23017097       0.09680655      -0.26259192
O        1.87142573       1.31982489      -0.37387376
H       -2.52227776      -0.59945582       0.76171265
H       -2.70738221       0.93642530      -0.10017501
H       -2.68716296      -0.60354175      -0.99183251
H       -0.64516017       1.94193413      -0.02428347
H        1.23726332      -0.30929321       1.57697017
H        2.27563292      -1.62653626       0.92205490
H        2.57840219      -0.31443887      -1.21832111
14
Frame=15 idx=010528 GeodesicLength=1.0560842878674495 rxn_smarts="[C:1](/[C:2](=[N:3]\[H:11])[O:4][C:5]([C:6](=[O:7])[H:14])([H:12])[H:13])([H:8])([H:9])[H:10]>>[C:1]([C:2]([N:3]([O:7][C:6](=[C:5]([H:12])[H:13])[H:14])[H:11])=[O:4])([H:8])([H:9])[H:10]"
C       -2.27357581      -0.05479578      -0.17219836
C       -0.77491546      -0.01738999      -0.26638937
N       -0.09171658       1.10665945      -0.14740422
O       -0.16391122      -1.13294937      -0.20715807
C        1.66522948      -0.76132097       0.68946014
C        2.23129161       0.08832878      -0.28885609
O        1.87449452       1.31022512      -0.42471877
H       -2.57584096      -0.64023099       0.69618391
H       -2.70727158       0.94084037      -0.09266521
H       -2.66215252      -0.55547360      -1.05945986
H       -0.64725979       1.93658943       0.00355110
H        1.28935681      -0.27401239       1.58569209
H        2.30808245      -1.60007019       0.93609927
H        2.52818905      -0.34639985      -1.25213655
14
Frame=16 idx=010528 GeodesicLength=1.1140973357070485 rxn_smarts="[C:1](/[C:2](=[N:3]\[H:11])[O:4][C:5]([C:6](=[O:7])[H:14])([H:12])[H:13])([H:8])([H:9])[H:10]>>[C:1]([C:2]([N:3]([O:7][C:6](=[C:5]([H:12])[H:13])[H:14])[H:11])=[O:4])([H:8])([H:9])[H:10]"
C       -2.27912660      -0.05188608      -0.19670791
C       -0.77846392      -0.02345993      -0.22737590
N       -0.08939365       1.09127825      -0.06129566
O       -0.17750494      -1.14356561      -0.12089019
C        1.67912361      -0.75047682       0.69387107
C        2.22788163       0.08019559      -0.31508644
O        1.86998902       1.29984155      -0.47390091
H       -2.62464331      -0.67748691       0.62596740
H       -2.70585671       0.94379146      -0.08697933
H       -2.62895785      -0.50700601      -1.12389667
H       -0.64554846       1.92925760       0.03061396
H        1.34169263      -0.23998670       1.59319678
H        2.34018313      -1.57359091       0.94632934
H        2.47062541      -0.37690550      -1.28384553
