15
Frame=0 idx=003661 GeodesicLength=0.0 rxn_smarts="[C:1]([C:2](/[C:3](=[N:4]\[O:5][H:12])[C:6]([H:13])([H:14])[H:15])([H:10])[H:11])([H:7])([H:8])[H:9]>>[C:1]([C:2]([C@:3]([N:4]=[O:5])([C:6]([H:13])([H:14])[H:15])[H:12])([H:10])[H:11])([H:7])([H:8])[H:9]"
C        1.67789234      -0.32574273       0.16781426
C        0.59986163       0.26999212      -0.73519594
C       -0.79759017       0.32323451      -0.05787597
N       -0.98331876       1.41608365       0.74526420
O       -1.11959679       2.39764757      -0.05611838
C       -1.27831804      -0.99740307       0.49273384
H        1.78674981       0.25472604       1.08531648
H        1.45532141      -1.35762537       0.44309966
H        2.63790713      -0.32548181      -0.35250543
H        0.89824279       1.26788591      -1.05627826
H        0.50012671      -0.33219681      -1.64057249
H       -1.17006868       1.43835355      -0.92312068
H       -2.35402615      -0.98231228       0.66596954
H       -1.06411582      -1.79860235      -0.21613557
H       -0.78906737      -1.24855897       1.43760469
15
Frame=1 idx=003661 GeodesicLength=0.04826239817755557 rxn_smarts="[C:1]([C:2](/[C:3](=[N:4]\[O:5][H:12])[C:6]([H:13])([H:14])[H:15])([H:10])[H:11])([H:7])([H:8])[H:9]>>[C:1]([C:2]([C@:3]([N:4]=[O:5])([C:6]([H:13])([H:14])[H:15])[H:12])([H:10])[H:11])([H:7])([H:8])[H:9]"
C        1.68393618      -0.31731835       0.17203067
C        0.60156664       0.26108734      -0.73708790
C       -0.79407697       0.32020511      -0.06190329
N       -0.97363699       1.40632456       0.75259645
O       -1.10884519       2.39749520      -0.03891751
C       -1.28492153      -0.99829472       0.48490845
H        1.79109412       0.27598030       1.08145367
H        1.46616956      -1.34646199       0.46110827
H        2.64394131      -0.31843714      -0.34814695
H        0.89674664       1.25538453      -1.07248530
H        0.50474226      -0.35307457      -1.63480023
H       -1.19104509       1.44829305      -0.92081214
H       -2.35830961      -0.97047597       0.67052571
H       -1.08832506      -1.79780250      -0.23100397
H       -0.78903626      -1.26290486       1.42253407
15
Frame=2 idx=003661 GeodesicLength=0.09653550141630768 rxn_smarts="[C:1]([C:2](/[C:3](=[N:4]\[O:5][H:12])[C:6]([H:13])([H:14])[H:15])([H:10])[H:11])([H:7])([H:8])[H:9]>>[C:1]([C:2]([C@:3]([N:4]=[O:5])([C:6]([H:13])([H:14])[H:15])[H:12])([H:10])[H:11])([H:7])([H:8])[H:9]"
C        1.69001418      -0.30875823       0.17627940
C        0.60341495       0.25198145      -0.73888451
C       -0.79052938       0.31716595      -0.06605896
N       -0.96392489       1.39639861       0.75978844
O       -1.09786750       2.39700869      -0.02188820
C       -1.29156791      -0.99911968       0.47690143
H        1.79549031       0.29757191       1.07722744
H        1.47697600      -1.33481495       0.47954184
H        2.64999600      -0.31149845      -0.34377731
H        0.89524474       1.24247163      -1.08867638
H        0.50961613      -0.37424417      -1.62864322
H       -1.21255863       1.45847183      -0.91779613
H       -2.36225796      -0.95865377       0.67533839
H       -1.11306368      -1.79646070      -0.24620056
H       -0.78898234      -1.27752011       1.40684834
15
Frame=3 idx=003661 GeodesicLength=0.1448163345727769 rxn_smarts="[C:1]([C:2](/[C:3](=[N:4]\[O:5][H:12])[C:6]([H:13])([H:14])[H:15])([H:10])[H:11])([H:7])([H:8])[H:9]>>[C:1]([C:2]([C@:3]([N:4]=[O:5])([C:6]([H:13])([H:14])[H:15])[H:12])([H:10])[H:11])([H:7])([H:8])[H:9]"
C        1.69612309      -0.30006830       0.18055747
C        0.60541216       0.24267340      -0.74058099
C       -0.78694540       0.31412262      -0.07035042
N       -0.95418042       1.38630912       0.76683338
O       -1.08668678       2.39618394      -0.00504840
C       -1.29825116      -0.99987053       0.46870859
H        1.79993489       0.31949069       1.07261897
H        1.48772178      -1.32266814       0.49840060
H        2.65607120      -0.30468708      -0.33939066
H        0.89375663       1.22913673      -1.10484057
H        0.51474862      -0.39570297      -1.62208617
H       -1.23463143       1.46888057      -0.91403668
H       -2.36585079      -0.94686171       0.68040256
H       -1.13831212      -1.79454373      -0.26171019
H       -0.78891027      -1.29239462       1.39052251
15
Frame=4 idx=003661 GeodesicLength=0.19309912711763644 rxn_smarts="[C:1]([C:2](/[C:3](=[N:4]\[O:5][H:12])[C:6]([H:13])([H:14])[H:15])([H:10])[H:11])([H:7])([H:8])[H:9]>>[C:1]([C:2]([C@:3]([N:4]=[O:5])([C:6]([H:13])([H:14])[H:15])[H:12])([H:10])[H:11])([H:7])([H:8])[H:9]"
C        1.70225911      -0.29125436       0.18486225
C        0.60756420       0.23316160      -0.74217314
C       -0.78332321       0.31108103      -0.07478667
N       -0.94440209       1.37605953       0.77372266
O       -1.07532681       2.39501843       0.01158316
C       -1.30496546      -1.00053974       0.46032393
H        1.80442462       0.34172775       1.06760564
H        1.49838482      -1.31000195       0.51768720
H        2.66216679      -0.29802842      -0.33497995
H        0.89230276       1.21536758      -1.12096941
H        0.52014087      -0.41745036      -1.61511279
H       -1.25728640       1.47951514      -0.90948847
H       -2.36906692      -0.93511986       0.68571305
H       -1.16404650      -1.79201939      -0.27751758
H       -0.78882578      -1.30751697       1.37353012
15
Frame=5 idx=003661 GeodesicLength=0.24137355226415738 rxn_smarts="[C:1]([C:2](/[C:3](=[N:4]\[O:5][H:12])[C:6]([H:13])([H:14])[H:15])([H:10])[H:11])([H:7])([H:8])[H:9]>>[C:1]([C:2]([C@:3]([N:4]=[O:5])([C:6]([H:13])([H:14])[H:15])[H:12])([H:10])[H:11])([H:7])([H:8])[H:9]"
C        1.70841859      -0.28232550       0.18918988
C        0.60987699       0.22344550      -0.74365738
C       -0.77966001       0.30804819      -0.07937580
N       -0.93458677       1.36565640       0.78044697
O       -1.06382388       2.39351349       0.02798346
C       -1.31170310      -1.00111909       0.45174335
H        1.80895471       0.36426644       1.06216907
H        1.50894335      -1.29680307       0.53739634
H        2.66828325      -0.29154519      -0.33053839
H        0.89090756       1.20115395      -1.13705485
H        0.52579130      -0.43948317      -1.60770730
H       -1.28054198       1.49036899      -0.90410285
H       -2.37188578      -0.92344919       0.69125846
H       -1.19023819      -1.78885720      -0.29360034
H       -0.78873604      -1.32287055       1.35584939
15
Frame=6 idx=003661 GeodesicLength=0.2896375148938062 rxn_smarts="[C:1]([C:2](/[C:3](=[N:4]\[O:5][H:12])[C:6]([H:13])([H:14])[H:15])([H:10])[H:11])([H:7])([H:8])[H:9]>>[C:1]([C:2]([C@:3]([N:4]=[O:5])([C:6]([H:13])([H:14])[H:15])[H:12])([H:10])[H:11])([H:7])([H:8])[H:9]"
C        1.71459686      -0.27328782       0.19353664
C        0.61235564       0.21352361      -0.74503046
C       -0.77595371       0.30503041      -0.08412816
N       -0.92473442       1.35510376       0.78699506
O       -1.05219845       2.39166856       0.04413343
C       -1.31845673      -1.00160107       0.44296208
H        1.81352028       0.38709517       1.05628412
H        1.51937152      -1.28304914       0.55752777
H        2.67442028      -0.28526263      -0.32605454
H        0.88959370       1.18648080      -1.15309000
H        0.53169829      -0.46180111      -1.59985282
H       -1.30442240       1.50143924      -0.89782689
H       -2.37428644      -0.91187421       0.69703062
H       -1.21685630      -1.78502649      -0.30994120
H       -0.78864812      -1.33843908       1.33745435
15
Frame=7 idx=003661 GeodesicLength=0.33789902551561823 rxn_smarts="[C:1]([C:2](/[C:3](=[N:4]\[O:5][H:12])[C:6]([H:13])([H:14])[H:15])([H:10])[H:11])([H:7])([H:8])[H:9]>>[C:1]([C:2]([C@:3]([N:4]=[O:5])([C:6]([H:13])([H:14])[H:15])[H:12])([H:10])[H:11])([H:7])([H:8])[H:9]"
C        1.72078912      -0.26415029       0.19789765
C        0.61500508       0.20339623      -0.74628935
C       -0.77220146       0.30203480      -0.08905077
N       -0.91484519       1.34440815       0.79335710
O       -1.04048349       2.38948862       0.06001417
C       -1.32521608      -1.00197831       0.43397795
H        1.81811408       0.41019293       1.04993097
H        1.52964407      -1.26872696       0.57807226
H        2.68057779      -0.27920403      -0.32151911
H        0.88838667       1.17133826      -1.16906856
H        0.53785716      -0.48439917      -1.59153312
H       -1.32894465       1.51271963      -0.89061646
H       -2.37624901      -0.90041947       0.70301472
H       -1.24386394      -1.78049965      -0.32651376
H       -0.78857015      -1.35420073       1.31832631
15
Frame=8 idx=003661 GeodesicLength=0.38614018900544644 rxn_smarts="[C:1]([C:2](/[C:3](=[N:4]\[O:5][H:12])[C:6]([H:13])([H:14])[H:15])([H:10])[H:11])([H:7])([H:8])[H:9]>>[C:1]([C:2]([C@:3]([N:4]=[O:5])([C:6]([H:13])([H:14])[H:15])[H:12])([H:10])[H:11])([H:7])([H:8])[H:9]"
C        1.72699048      -0.25492451       0.20226911
C        0.61783161       0.19306219      -0.74743212
C       -0.76839938       0.29906908      -0.09415598
N       -0.90491578       1.33357776       0.79951802
O       -1.02872084       2.38697388       0.07559540
C       -1.33197110      -1.00224191       0.42478625
H        1.82273185       0.43354021       1.04308395
H        1.53973114      -1.25381495       0.59902362
H        2.68675640      -0.27339888      -0.31691876
H        0.88731515       1.15571049      -1.18498393
H        0.54426523      -0.50727501      -1.58273161
H       -1.35413085       1.52421286      -0.88239727
H       -2.37775210      -0.88911254       0.70919606
H       -1.27122115      -1.77524957      -0.34329661
H       -0.78851067      -1.37012910       1.29844387
15
Frame=9 idx=003661 GeodesicLength=0.4342744538571154 rxn_smarts="[C:1]([C:2](/[C:3](=[N:4]\[O:5][H:12])[C:6]([H:13])([H:14])[H:15])([H:10])[H:11])([H:7])([H:8])[H:9]>>[C:1]([C:2]([C@:3]([N:4]=[O:5])([C:6]([H:13])([H:14])[H:15])[H:12])([H:10])[H:11])([H:7])([H:8])[H:9]"
C        1.73319689      -0.24562684       0.20664891
C        0.62084413       0.18252270      -0.74845809
C       -0.76454150       0.29615207      -0.09946300
N       -0.89492329       1.32263637       0.80546080
O       -1.01699316       2.38412570       0.09082638
C       -1.33870883      -1.00237520       0.41538849
H        1.82737305       0.45709669       1.03572644
H        1.54960749      -1.23830384       0.62035761
H        2.69295538      -0.26788061      -0.31222873
H        0.88641290       1.13959079      -1.20083236
H        0.55091838      -0.53042401      -1.57343382
H       -1.38000666       1.53588829      -0.87305894
H       -2.37878279      -0.87797325       0.71553938
H       -1.29888842      -1.76924704      -0.36027370
H       -0.78846358      -1.38618183       1.27780062
15
Frame=10 idx=003661 GeodesicLength=0.48238223689518206 rxn_smarts="[C:1]([C:2](/[C:3](=[N:4]\[O:5][H:12])[C:6]([H:13])([H:14])[H:15])([H:10])[H:11])([H:7])([H:8])[H:9]>>[C:1]([C:2]([C@:3]([N:4]=[O:5])([C:6]([H:13])([H:14])[H:15])[H:12])([H:10])[H:11])([H:7])([H:8])[H:9]"
C        1.73940080      -0.23626237       0.21102913
C        0.62404162       0.17177940      -0.74936455
C       -0.76062716       0.29328360      -0.10497443
N       -0.88488643       1.31157805       0.81117674
O       -1.00529116       2.38095561       0.10571282
C       -1.34542001      -1.00237692       0.40577716
H        1.83202593       0.48085290       1.02783011
H        1.55923961      -1.22217034       0.64206959
H        2.69917465      -0.26266919      -0.30744708
H        0.88570107       1.12296402      -1.21660624
H        0.55780493      -0.55383651      -1.56362301
H       -1.40657961       1.54775116      -0.86258525
H       -2.37932052      -0.86703012       0.72203222
H       -1.32680705      -1.76248080      -0.37740337
H       -0.78845667      -1.40233850       1.25637616
15
Frame=11 idx=003661 GeodesicLength=0.5304783346923904 rxn_smarts="[C:1]([C:2](/[C:3](=[N:4]\[O:5][H:12])[C:6]([H:13])([H:14])[H:15])([H:10])[H:11])([H:7])([H:8])[H:9]>>[C:1]([C:2]([C@:3]([N:4]=[O:5])([C:6]([H:13])([H:14])[H:15])[H:12])([H:10])[H:11])([H:7])([H:8])[H:9]"
C        1.74559605      -0.22684445       0.21540378
C        0.62742671       0.16083630      -0.75015033
C       -0.75665223       0.29047426      -0.11069967
N       -0.87480342       1.30041401       0.81665288
O       -0.99364947       2.37747562       0.12023792
C       -1.35209272      -1.00223713       0.39595196
H        1.83668265       0.50477682       1.01937776
H        1.56859866      -1.20540473       0.66413746
H        2.70541377      -0.25778786      -0.30255960
H        0.88520773       1.10582311      -1.23230113
H        0.56491363      -0.57750040      -1.55328573
H       -1.43386726       1.55977915      -0.85092301
H       -2.37935263      -0.85630555       0.72864554
H       -1.35492074      -1.75493799      -0.39465404
H       -0.78850071      -1.41856115       1.23416621
15
Frame=12 idx=003661 GeodesicLength=0.5785738541469609 rxn_smarts="[C:1]([C:2](/[C:3](=[N:4]\[O:5][H:12])[C:6]([H:13])([H:14])[H:15])([H:10])[H:11])([H:7])([H:8])[H:9]>>[C:1]([C:2]([C@:3]([N:4]=[O:5])([C:6]([H:13])([H:14])[H:15])[H:12])([H:10])[H:11])([H:7])([H:8])[H:9]"
C        1.75177687      -0.21738669       0.21976691
C        0.63100259       0.14969719      -0.75081436
C       -0.75261205       0.28773520      -0.11665034
N       -0.86467158       1.28915656       0.82187420
O       -0.98210799       2.37369658       0.13437849
C       -1.35871370      -1.00194528       0.38591180
H        1.84133514       0.52883217       1.01035348
H        1.57765460      -1.18799568       0.68653462
H        2.71167244      -0.25326180      -0.29754894
H        0.88496268       1.08815986      -1.24791130
H        0.57223284      -0.60140194      -1.54240950
H       -1.46188921       1.57195016      -0.83800931
H       -2.37886505      -0.84581843       0.73535223
H       -1.38316988      -1.74660927      -0.41199558
H       -0.78860771      -1.43480863       1.21116761
15
Frame=13 idx=003661 GeodesicLength=0.6266848942596359 rxn_smarts="[C:1]([C:2](/[C:3](=[N:4]\[O:5][H:12])[C:6]([H:13])([H:14])[H:15])([H:10])[H:11])([H:7])([H:8])[H:9]>>[C:1]([C:2]([C@:3]([N:4]=[O:5])([C:6]([H:13])([H:14])[H:15])[H:12])([H:10])[H:11])([H:7])([H:8])[H:9]"
C        1.75793729      -0.20790391       0.22411244
C        0.63477109       0.13836664      -0.75135661
C       -0.74850088       0.28507703      -0.12283599
N       -0.85448786       1.27782002       0.82682566
O       -0.97070958       2.36963116       0.14811167
C       -1.36527008      -1.00149099       0.37565759
H        1.84597593       0.55298029       1.00074282
H        1.58637958      -1.16993482       0.70923352
H        2.71795076      -0.24911088      -0.29239812
H        0.88499423       1.06996699      -1.26343221
H        0.57974911      -0.62552742      -1.53098124
H       -1.49065749       1.58424084      -0.82378410
H       -2.37784599      -0.83558698       0.74212513
H       -1.41149580      -1.73748826      -0.42940000
H       -0.78879031      -1.45103969       1.18737946
15
Frame=14 idx=003661 GeodesicLength=0.674805521438235 rxn_smarts="[C:1]([C:2](/[C:3](=[N:4]\[O:5][H:12])[C:6]([H:13])([H:14])[H:15])([H:10])[H:11])([H:7])([H:8])[H:9]>>[C:1]([C:2]([C@:3]([N:4]=[O:5])([C:6]([H:13])([H:14])[H:15])[H:12])([H:10])[H:11])([H:7])([H:8])[H:9]"
C        1.76407137      -0.19841566       0.22843164
C        0.63873505       0.12685216      -0.75177763
C       -0.74431306       0.28251345      -0.12926895
N       -0.84425069       1.26642368       0.83148771
O       -0.95950821       2.36529518       0.16140805
C       -1.37174594      -1.00086112       0.36519197
H        1.85059063       0.57716315       0.99054128
H        1.59474797      -1.15123190       0.73217911
H        2.72425036      -0.24534553      -0.28709016
H        0.88533690       1.05124032      -1.27885647
H        0.58744593      -0.64985490      -1.51899426
H       -1.52018103       1.59662331      -0.80817477
H       -2.37629504      -0.82562752       0.74891161
H       -1.43982112      -1.72758231      -0.44681801
H       -0.78906311      -1.46719231       1.16282888
15
Frame=15 idx=003661 GeodesicLength=0.7229359045173693 rxn_smarts="[C:1]([C:2](/[C:3](=[N:4]\[O:5][H:12])[C:6]([H:13])([H:14])[H:15])([H:10])[H:11])([H:7])([H:8])[H:9]>>[C:1]([C:2]([C@:3]([N:4]=[O:5])([C:6]([H:13])([H:14])[H:15])[H:12])([H:10])[H:11])([H:7])([H:8])[H:9]"
C        1.77017430      -0.18893822       0.23271877
C        0.64289702       0.11515765      -0.75207858
C       -0.74004141       0.28005493      -0.13596214
N       -0.83395742       1.25498492       0.83583846
O       -0.94855885       2.36070100       0.17423284
C       -1.37812765      -1.00004445       0.35451628
H        1.85517220       0.60133669       0.97973770
H        1.60273414      -1.13188162       0.75533456
H        2.73057266      -0.24198165      -0.28160384
H        0.88602141       1.03197043      -1.29417990
H        0.59531018      -0.67436947      -1.50643721
H       -1.55046525       1.60907589      -0.79109821
H       -2.37420348      -0.81595458       0.75568241
H       -1.46808723      -1.71689277      -0.46422520
H       -0.78944063      -1.48321875       1.13752404
15
Frame=16 idx=003661 GeodesicLength=0.7710668332458845 rxn_smarts="[C:1]([C:2](/[C:3](=[N:4]\[O:5][H:12])[C:6]([H:13])([H:14])[H:15])([H:10])[H:11])([H:7])([H:8])[H:9]>>[C:1]([C:2]([C@:3]([N:4]=[O:5])([C:6]([H:13])([H:14])[H:15])[H:12])([H:10])[H:11])([H:7])([H:8])[H:9]"
C        1.77624166      -0.17948881       0.23696613
C        0.64725860       0.10328920      -0.75226092
C       -0.73567899       0.27771316      -0.14292799
N       -0.82360765       1.24352524       0.83985461
O       -0.93792167       2.35586554       0.18655096
C       -1.38440061      -0.99902893       0.34363345
H        1.85970748       0.62544143       0.96833254
H        1.61031847      -1.11189537       0.77864206
H        2.73692001      -0.23902098      -0.27592035
H        0.88707932       1.01215119      -1.30939722
H        0.60332473      -0.69905005      -1.49330284
H       -1.58150371       1.62156795      -0.77247418
H       -2.37157339      -0.80657746       0.76239083
H       -1.49622626      -1.70543116      -0.48158243
H       -0.78993798      -1.49906094       1.11149535
