16
Frame=0 idx=001777 GeodesicLength=0.0 rxn_smarts="[C:1]([C@@:2]1([H:10])[C:3]([H:11])([H:12])[C@:4]([O:5][H:14])([H:13])[C:6]1([H:15])[H:16])([H:7])([H:8])[H:9]>>[C:1]([C:2]1=[C:6]([H:15])[C@@:4]([O:5][H:14])([H:13])[C:3]1([H:11])[H:12])([H:8])([H:9])[H:10].[H:7][H:16]"
C        2.02912038      -0.02514377      -0.09043277
C        0.66202950       0.09229321       0.37346469
C       -0.38605850       1.12365224      -0.03700668
C       -1.46083948       0.06172990       0.35310168
O       -2.40582505      -0.28611822      -0.63417697
C       -0.32459713      -0.91580351       0.48002738
H        1.20562431      -1.09885708      -1.46864412
H        2.61572529      -0.86447600       0.26881934
H        2.58063365       0.87771128      -0.33336477
H        1.23073465       0.32232879       1.35449145
H       -0.38704585       1.29289751      -1.11502910
H       -0.39163764       2.07622953       0.49455609
H       -1.97766531       0.29787413       1.29373429
H       -3.15058641       0.31450331      -0.57024326
H       -0.29802101      -1.91860418       0.88668251
H        0.45840853      -1.35021708      -1.25597975
16
Frame=1 idx=001777 GeodesicLength=0.10645587352169265 rxn_smarts="[C:1]([C@@:2]1([H:10])[C:3]([H:11])([H:12])[C@:4]([O:5][H:14])([H:13])[C:6]1([H:15])[H:16])([H:7])([H:8])[H:9]>>[C:1]([C:2]1=[C:6]([H:15])[C@@:4]([O:5][H:14])([H:13])[C:3]1([H:11])[H:12])([H:8])([H:9])[H:10].[H:7][H:16]"
C        2.02662768      -0.02590866      -0.08836639
C        0.65923578       0.09763619       0.38083614
C       -0.39027820       1.12505735      -0.03452237
C       -1.46213248       0.05902215       0.35010025
O       -2.40287227      -0.29350023      -0.63949324
C       -0.32367144      -0.91693076       0.47671112
H        1.20717149      -1.08695085      -1.47845046
H        2.60352317      -0.87859902       0.25640253
H        2.59739501       0.86752235      -0.32115493
H        1.26195118       0.33845075       1.35419690
H       -0.38910649       1.29480431      -1.11262099
H       -0.40117016       2.07802719       0.49626731
H       -1.97989215       0.29137990       1.29093541
H       -3.14834726       0.30677064      -0.58099532
H       -0.29794423      -1.91080400       0.90533548
H        0.43951037      -1.34597731      -1.25518146
16
Frame=2 idx=001777 GeodesicLength=0.21292618025970092 rxn_smarts="[C:1]([C@@:2]1([H:10])[C:3]([H:11])([H:12])[C@:4]([O:5][H:14])([H:13])[C:6]1([H:15])[H:16])([H:7])([H:8])[H:9]>>[C:1]([C:2]1=[C:6]([H:15])[C@@:4]([O:5][H:14])([H:13])[C:3]1([H:11])[H:12])([H:8])([H:9])[H:10].[H:7][H:16]"
C        2.02406363      -0.02669760      -0.08602600
C        0.65641203       0.10276983       0.38875502
C       -0.39444261       1.12623807      -0.03191366
C       -1.46344597       0.05620354       0.34716596
O       -2.39996930      -0.30077268      -0.64474574
C       -0.32280328      -0.91824317       0.47339125
H        1.20951122      -1.07418293      -1.48855984
H        2.59110797      -0.89216709       0.24458020
H        2.61395200       0.85649639      -0.30975695
H        1.29330506       0.35515310       1.35337502
H       -0.39097238       1.29644149      -1.11008859
H       -0.41073142       2.07963502       0.49798813
H       -1.98210371       0.28476852       1.28821159
H       -3.14603955       0.29924235      -0.59166366
H       -0.29819699      -1.90288023       0.92348674
H        0.42035330      -1.34200463      -1.25419947
16
Frame=3 idx=001777 GeodesicLength=0.3193969564209449 rxn_smarts="[C:1]([C@@:2]1([H:10])[C:3]([H:11])([H:12])[C@:4]([O:5][H:14])([H:13])[C:6]1([H:15])[H:16])([H:7])([H:8])[H:9]>>[C:1]([C:2]1=[C:6]([H:15])[C@@:4]([O:5][H:14])([H:13])[C:3]1([H:11])[H:12])([H:8])([H:9])[H:10].[H:7][H:16]"
C        2.02143510      -0.02750600      -0.08339267
C        0.65355179       0.10769064       0.39719538
C       -0.39855149       1.12719571      -0.02919212
C       -1.46477957       0.05328164       0.34430883
O       -2.39713300      -0.30793360      -0.64990937
C       -0.32199159      -0.91973188       0.47007881
H        1.21274039      -1.06051310      -1.49897110
H        2.57848629      -0.90520623       0.23338691
H        2.63030265       0.84465522      -0.29916813
H        1.32475179       0.37243285       1.35198831
H       -0.39265311       1.29780153      -1.10744418
H       -0.42030988       2.08105706       0.49969937
H       -1.98428985       0.27805812       1.28557586
H       -3.14367437       0.29192844      -0.60222245
H       -0.29878321      -1.89487295       0.94109347
H        0.40089806      -1.33833743      -1.25302692
16
Frame=4 idx=001777 GeodesicLength=0.42585792127956357 rxn_smarts="[C:1]([C@@:2]1([H:10])[C:3]([H:11])([H:12])[C@:4]([O:5][H:14])([H:13])[C:6]1([H:15])[H:16])([H:7])([H:8])[H:9]>>[C:1]([C:2]1=[C:6]([H:15])[C@@:4]([O:5][H:14])([H:13])[C:3]1([H:11])[H:12])([H:8])([H:9])[H:10].[H:7][H:16]"
C        2.01875084      -0.02832880      -0.08044715
C        0.65064814       0.11239587       0.40612472
C       -0.40260533       1.12793184      -0.02637435
C       -1.46613325       0.05026523       0.34153929
O       -2.39438458      -0.31498121      -0.65495476
C       -0.32123586      -0.92138716       0.46678304
H        1.21696940      -1.04589098      -1.50968584
H        2.56566427      -0.91774336       0.22285009
H        2.64644748       0.83202009      -0.28936814
H        1.35624187       0.39027891       1.35000058
H       -0.39416110       1.29887404      -1.10470573
H       -0.42989245       2.08229875       0.50137509
H       -1.98643742       0.27126988       1.28304321
H       -3.14126644       0.28483949      -0.61264044
H       -0.29970341      -1.88682302       0.95811742
H        0.38109784      -1.33501956      -1.25165702
16
Frame=5 idx=001777 GeodesicLength=0.5322898865536007 rxn_smarts="[C:1]([C@@:2]1([H:10])[C:3]([H:11])([H:12])[C@:4]([O:5][H:14])([H:13])[C:6]1([H:15])[H:16])([H:7])([H:8])[H:9]>>[C:1]([C:2]1=[C:6]([H:15])[C@@:4]([O:5][H:14])([H:13])[C:3]1([H:11])[H:12])([H:8])([H:9])[H:10].[H:7][H:16]"
C        2.01602209      -0.02916116      -0.07716977
C        0.64769418       0.11688382       0.41550468
C       -0.40660486       1.12844751      -0.02348347
C       -1.46750726       0.04716401       0.33886799
O       -2.39174822      -0.32191647      -0.65984840
C       -0.32053573      -0.92319821       0.46351371
H        1.22231109      -1.03023698      -1.52071886
H        2.55264532      -0.92981094       0.21298424
H        2.66239402       0.81861045      -0.28031189
H        1.38772261       0.40867068       1.34737900
H       -0.39551125       1.29964389      -1.10189839
H       -0.43946461       2.08336691       0.50297980
H       -1.98853143       0.26442940       1.28062956
H       -3.13883298       0.27798389      -0.62288323
H       -0.30095544      -1.87876881       0.97453140
H        0.36090247      -1.33210797      -1.25007636
16
Frame=6 idx=001777 GeodesicLength=0.6386860528940004 rxn_smarts="[C:1]([C@@:2]1([H:10])[C:3]([H:11])([H:12])[C@:4]([O:5][H:14])([H:13])[C:6]1([H:15])[H:16])([H:7])([H:8])[H:9]>>[C:1]([C:2]1=[C:6]([H:15])[C@@:4]([O:5][H:14])([H:13])[C:3]1([H:11])[H:12])([H:8])([H:9])[H:10].[H:7][H:16]"
C        2.01326255      -0.02999804      -0.07353976
C        0.64468237       0.12115317       0.42528925
C       -0.41055161       1.12874322      -0.02055001
C       -1.46890242       0.04398869       0.33630625
O       -2.38925466      -0.32874092      -0.66455052
C       -0.31989195      -0.92515415       0.46027798
H        1.22889924      -1.01345345      -1.53208953
H        2.53943135      -0.94144242       0.20379452
H        2.67815335       0.80444354      -0.27193251
H        1.41913662       0.42757745       1.34409547
H       -0.39672176       1.30009030      -1.09905569
H       -0.44900989       2.08426990       0.50446738
H       -1.99055254       0.25756639       1.27835374
H       -3.13639687       0.27137040      -0.63290806
H       -0.30253371      -1.87074743       0.99031371
H        0.34024992      -1.32966666      -1.24827224
16
Frame=7 idx=001777 GeodesicLength=0.7450393984554624 rxn_smarts="[C:1]([C@@:2]1([H:10])[C:3]([H:11])([H:12])[C@:4]([O:5][H:14])([H:13])[C:6]1([H:15])[H:16])([H:7])([H:8])[H:9]>>[C:1]([C:2]1=[C:6]([H:15])[C@@:4]([O:5][H:14])([H:13])[C:3]1([H:11])[H:12])([H:8])([H:9])[H:10].[H:7][H:16]"
C        2.01048879      -0.03083516      -0.06953529
C        0.64160497       0.12520313       0.43542587
C       -0.41444741       1.12881812      -0.01761277
C       -1.47032017       0.04075061       0.33386586
O       -2.38693948      -0.33545939      -0.66901574
C       -0.31930616      -0.92724412       0.45708332
H        1.23687886      -0.99540354      -1.54383000
H        2.52602050      -0.95267641       0.19526998
H        2.69374375       0.78953211      -0.26413714
H        1.45042435       0.44695735       1.34012897
H       -0.39781343       1.30018538      -1.09622053
H       -0.45850982       2.08501737       0.50577930
H       -1.99247883       0.25071590       1.27623622
H       -3.13398500       0.26500551      -0.64266737
H       -0.30443013      -1.86279144       1.00545524
H        0.31906920      -1.32777543      -1.24622592
16
Frame=8 idx=001777 GeodesicLength=0.8513495563271957 rxn_smarts="[C:1]([C@@:2]1([H:10])[C:3]([H:11])([H:12])[C@:4]([O:5][H:14])([H:13])[C:6]1([H:15])[H:16])([H:7])([H:8])[H:9]>>[C:1]([C:2]1=[C:6]([H:15])[C@@:4]([O:5][H:14])([H:13])[C:3]1([H:11])[H:12])([H:8])([H:9])[H:10].[H:7][H:16]"
C        2.00772063      -0.03166919      -0.06513256
C        0.63845372       0.12903295       0.44585465
C       -0.41829415       1.12866959      -0.01472062
C       -1.47176293       0.03746158       0.33155949
O       -2.38484543      -0.34207983      -0.67319135
C       -0.31878184      -0.92945830       0.45393655
H        1.24641540      -0.97590730      -1.55598249
H        2.51240738      -0.96355570       0.18738248
H        2.70919036       0.77388352      -0.25680594
H        1.48152406       0.46675686       1.33546775
H       -0.39880949       1.29989198      -1.09344747
H       -0.46794314       2.08562087       0.50684166
H       -1.99428477       0.24391899       1.27430046
H       -3.13163028       0.25889392      -0.65210544
H       -0.30663506      -1.85492921       1.01995800
H        0.29727555      -1.32653074      -1.24391519
16
Frame=9 idx=001777 GeodesicLength=0.9576554982044461 rxn_smarts="[C:1]([C@@:2]1([H:10])[C:3]([H:11])([H:12])[C@:4]([O:5][H:14])([H:13])[C:6]1([H:15])[H:16])([H:7])([H:8])[H:9]>>[C:1]([C:2]1=[C:6]([H:15])[C@@:4]([O:5][H:14])([H:13])[C:3]1([H:11])[H:12])([H:8])([H:9])[H:10].[H:7][H:16]"
C        2.00497922      -0.03249876      -0.06030638
C        0.63521976       0.13264081       0.45650707
C       -0.42209489       1.12828940      -0.01193435
C       -1.47323313       0.03413447       0.32940032
O       -2.38302339      -0.34861351      -0.67701479
C       -0.31832323      -0.93178504       0.45084621
H        1.25770771      -0.95473044      -1.56861649
H        2.49857445      -0.97413055       0.18008255
H        2.72452737       0.75749932      -0.24978261
H        1.51237273       0.48690593       1.33011205
H       -0.39973955       1.29915857      -1.09080283
H       -0.47728574       2.08608817       0.50756081
H       -1.99593779       0.23722539       1.27256995
H       -3.12937227       0.25303751      -0.66115853
H       -0.30913259      -1.84717624       1.03383728
H        0.27476135      -1.32604505      -1.24130026
16
Frame=10 idx=001777 GeodesicLength=1.0639406585886089 rxn_smarts="[C:1]([C@@:2]1([H:10])[C:3]([H:11])([H:12])[C@:4]([O:5][H:14])([H:13])[C:6]1([H:15])[H:16])([H:7])([H:8])[H:9]>>[C:1]([C:2]1=[C:6]([H:15])[C@@:4]([O:5][H:14])([H:13])[C:3]1([H:11])[H:12])([H:8])([H:9])[H:10].[H:7][H:16]"
C        2.00229207      -0.03332481      -0.05502670
C        0.63189359       0.13602518       0.46730860
C       -0.42585076       1.12766904      -0.00932863
C       -1.47473594       0.03078138       0.32740375
O       -2.38153301      -0.35507827      -0.68041485
C       -0.31793892      -0.93421923       0.44782070
H        1.27096444      -0.93156400      -1.58179849
H        2.48450480      -0.98445636       0.17329620
H        2.73980073       0.74037076      -0.24288590
H        1.54290818       0.50732558       1.32407631
H       -0.40063078       1.29792165      -1.08837150
H       -0.48650914       2.08643535       0.50782207
H       -1.99740526       0.23069256       1.27107573
H       -3.12725764       0.24743532      -0.66975282
H       -0.31191316      -1.83955037       1.04712334
H        0.25141080      -1.32646378      -1.23834781
16
Frame=11 idx=001777 GeodesicLength=1.1702189012415098 rxn_smarts="[C:1]([C@@:2]1([H:10])[C:3]([H:11])([H:12])[C@:4]([O:5][H:14])([H:13])[C:6]1([H:15])[H:16])([H:7])([H:8])[H:9]>>[C:1]([C:2]1=[C:6]([H:15])[C@@:4]([O:5][H:14])([H:13])[C:3]1([H:11])[H:12])([H:8])([H:9])[H:10].[H:7][H:16]"
C        1.99968828      -0.03415233      -0.04926068
C        0.62846501       0.13918264       0.47817583
C       -0.42956296       1.12679224      -0.00699436
C       -1.47627699       0.02741518       0.32558608
O       -2.38044386      -0.36149780      -0.68330790
C       -0.31763976      -0.93675543       0.44487262
H        1.28643515      -0.90601113      -1.59562099
H        2.47016545      -0.99459940       0.16691571
H        2.75506818       0.72247845      -0.23589295
H        1.57307007       0.52791783       1.31739241
H       -0.40151595       1.29609714      -1.08625508
H       -0.49558006       2.08667465       0.50748304
H       -1.99864726       0.22439020       1.26984910
H       -3.12534106       0.24208130      -0.67780493
H       -0.31496345      -1.83205432       1.05986410
H        0.22707920      -1.32795919      -1.23500201
16
Frame=12 idx=001777 GeodesicLength=1.2765034993899356 rxn_smarts="[C:1]([C@@:2]1([H:10])[C:3]([H:11])([H:12])[C@:4]([O:5][H:14])([H:13])[C:6]1([H:15])[H:16])([H:7])([H:8])[H:9]>>[C:1]([C:2]1=[C:6]([H:15])[C@@:4]([O:5][H:14])([H:13])[C:3]1([H:11])[H:12])([H:8])([H:9])[H:10].[H:7][H:16]"
C        1.99720056      -0.03499163      -0.04297135
C        0.62492294       0.14210743       0.48901590
C       -0.43323154       1.12563545      -0.00504234
C       -1.47786364       0.02404903       0.32396555
O       -2.37983795      -0.36790339      -0.68559576
C       -0.31744084      -0.93939154       0.44201898
H        1.30441273      -0.87756377      -1.61018799
H        2.45550880      -1.00463628       0.16079079
H        2.77040150       0.70378821      -0.22853946
H        1.60280073       0.54856565       1.31011288
H       -0.40243086       1.29357735      -1.08457758
H       -0.50445874       2.08681849       0.50636783
H       -1.99961792       0.21840261       1.26892514
H       -3.12368716       0.23696448      -0.68521908
H       -0.31827099      -1.82468071       1.07212669
H        0.20159237      -1.33074140      -1.23119020
16
Frame=13 idx=001777 GeodesicLength=1.3827986513731803 rxn_smarts="[C:1]([C@@:2]1([H:10])[C:3]([H:11])([H:12])[C@:4]([O:5][H:14])([H:13])[C:6]1([H:15])[H:16])([H:7])([H:8])[H:9]>>[C:1]([C:2]1=[C:6]([H:15])[C@@:4]([O:5][H:14])([H:13])[C:3]1([H:11])[H:12])([H:8])([H:9])[H:10].[H:7][H:16]"
C        1.99486555      -0.03586028      -0.03611724
C        0.62125566       0.14479082       0.49972571
C       -0.43685415       1.12416563      -0.00360726
C       -1.47950531       0.02069622       0.32256227
O       -2.37981006      -0.37433679      -0.68716371
C       -0.31736275      -0.94212982       0.43928467
H        1.32523442      -0.84556699      -1.62561173
H        2.44046927      -1.01465777       0.15471262
H        2.78588990       0.68424593      -0.22051345
H        1.63204804       0.56912937       1.30231441
H       -0.40341376       1.29022517      -1.08348959
H       -0.51309693       2.08687879       0.50425971
H       -2.00026612       0.21283238       1.26834153
H       -3.12237014       0.23206660      -0.69188808
H       -0.32182711      -1.81740911       1.08400430
H        0.17474350      -1.33507014      -1.22681417
16
Frame=14 idx=001777 GeodesicLength=1.4891167838039996 rxn_smarts="[C:1]([C@@:2]1([H:10])[C:3]([H:11])([H:12])[C@:4]([O:5][H:14])([H:13])[C:6]1([H:15])[H:16])([H:7])([H:8])[H:9]>>[C:1]([C:2]1=[C:6]([H:15])[C@@:4]([O:5][H:14])([H:13])[C:3]1([H:11])[H:12])([H:8])([H:9])[H:10].[H:7][H:16]"
C        1.99272299      -0.03678576      -0.02865233
C        0.61744999       0.14721884       0.51018774
C       -0.44042612       1.12233675      -0.00285404
C       -1.48121367       0.01737075       0.32139914
O       -2.38047348      -0.38084952      -0.68787437
C       -0.31743355      -0.94497834       0.43670199
H        1.34931646      -0.80919214      -1.64199366
H        2.42495778      -1.02476558       0.14839856
H        2.80163765       0.66377012      -0.21145120
H        1.66076335       0.58944176       1.29410075
H       -0.40450741       1.28586521      -1.08317488
H       -0.52143502       2.08686508       0.50089032
H       -2.00053068       0.20780540       1.26814074
H       -3.12147804       0.22736394      -0.69768580
H       -0.32562666      -1.81020605       1.09561482
H        0.14627643      -1.34126047      -1.22174779
16
Frame=15 idx=001777 GeodesicLength=1.5954682746625375 rxn_smarts="[C:1]([C@@:2]1([H:10])[C:3]([H:11])([H:12])[C@:4]([O:5][H:14])([H:13])[C:6]1([H:15])[H:16])([H:7])([H:8])[H:9]>>[C:1]([C:2]1=[C:6]([H:15])[C@@:4]([O:5][H:14])([H:13])[C:3]1([H:11])[H:12])([H:8])([H:9])[H:10].[H:7][H:16]"
C        1.99081657      -0.03780855      -0.02052731
C        0.61349195       0.14937119       0.52026692
C       -0.44393904       1.12008525      -0.00298643
C       -1.48300320       0.01408761       0.32050163
O       -2.38196158      -0.38750758      -0.68756283
C       -0.31769028      -0.94795171       0.43431659
H        1.37715462      -0.76737464      -1.65941536
H        2.40885286      -1.03507803       0.14145897
H        2.81777415       0.64224108      -0.20091975
H        1.68890522       0.60929867       1.28560811
H       -0.40575974       1.28027170      -1.08385888
H       -0.52939896       2.08678250       0.49592368
H       -2.00034068       0.20347878       1.26836750
H       -3.12111369       0.22282297      -0.70246727
H       -0.32967086      -1.80301894       1.10711210
H        0.11588265      -1.34970029      -1.21581768
16
Frame=16 idx=001777 GeodesicLength=1.7018732365676468 rxn_smarts="[C:1]([C@@:2]1([H:10])[C:3]([H:11])([H:12])[C@:4]([O:5][H:14])([H:13])[C:6]1([H:15])[H:16])([H:7])([H:8])[H:9]>>[C:1]([C:2]1=[C:6]([H:15])[C@@:4]([O:5][H:14])([H:13])[C:3]1([H:11])[H:12])([H:8])([H:9])[H:10].[H:7][H:16]"
C        1.98919291      -0.03898643      -0.01169196
C        0.60936629       0.15121901       0.52980396
C       -0.44738020       1.11732426      -0.00425850
C       -1.48489152       0.01086360       0.31989841
O       -2.38443417      -0.39439336      -0.68602776
C       -0.31818185      -0.95107289       0.43218906
H        1.40936049      -0.71875765      -1.67789912
H        2.39199009      -1.04572573       0.13335723
H        2.83445538       0.61948242      -0.18840434
H        1.71643829       0.62844924       1.27700954
H       -0.40722647       1.27315273      -1.08582033
H       -0.53689566       2.08662904       0.48893616
H       -1.99960994       0.20004996       1.26906964
H       -3.12139963       0.21839902      -0.70606019
H       -0.33396788      -1.79577285       1.11868992
H        0.08318388      -1.36086038      -1.20879172
