18
Frame=0 idx=002702 GeodesicLength=0.0 rxn_smarts="[C:1]([C:2]([C:3]1([H:12])[C:4]([H:13])([H:14])[C:5]([H:15])([H:16])[C:6]1([H:17])[H:18])([H:10])[H:11])([H:7])([H:8])[H:9]>>[C:1]([C:2]([C:3](=[C:4]([H:13])[H:14])[H:12])([H:10])[H:11])([H:7])([H:8])[H:9].[C:5](=[C:6]([H:17])[H:18])([H:15])[H:16]"
C       -2.15387892      -0.38824457      -0.22067401
C       -1.05474378       0.23729954       0.62505160
C        0.19596630       0.66615910      -0.09840367
C        1.18881655       1.38970694       0.62054206
C        1.78872023      -0.41160542      -0.12301624
C        0.81294287      -1.20995425      -0.78322593
H       -2.41213948       0.25897198      -1.06228105
H       -1.86267323      -1.35764390      -0.62159505
H       -3.05693413      -0.52497637       0.37637491
H       -1.42400874       1.16743540       1.07620587
H       -0.78436857      -0.40885447       1.46469743
H        0.03673593       0.99369146      -1.11938727
H        1.79497818       2.13114035       0.12456487
H        1.23963346       1.31281054       1.69695254
H        2.11964167      -0.73835429       0.85369851
H        2.57602598       0.03817057      -0.71345317
H        0.29931551      -1.98788573      -0.24092583
H        0.69597010      -1.16786684      -1.85512550
18
Frame=1 idx=002702 GeodesicLength=0.08765748080976672 rxn_smarts="[C:1]([C:2]([C:3]1([H:12])[C:4]([H:13])([H:14])[C:5]([H:15])([H:16])[C:6]1([H:17])[H:18])([H:10])[H:11])([H:7])([H:8])[H:9]>>[C:1]([C:2]([C:3](=[C:4]([H:13])[H:14])[H:12])([H:10])[H:11])([H:7])([H:8])[H:9].[C:5](=[C:6]([H:17])[H:18])([H:15])[H:16]"
C       -2.16386804      -0.37754128      -0.22128021
C       -1.06342016       0.24074241       0.62826614
C        0.18729411       0.66740857      -0.09595288
C        1.18456534       1.39007021       0.61853929
C        1.80972499      -0.42179397      -0.12647378
C        0.82382330      -1.21410110      -0.77934764
H       -2.42889657       0.28036266      -1.05240792
H       -1.86964944      -1.34003778      -0.63696734
H       -3.06396634      -0.52798873       0.37700939
H       -1.43174355       1.16616634       1.08923727
H       -0.79359457      -0.41495110       1.46091232
H        0.03203344       0.99350670      -1.11849789
H        1.77718759       2.14526278       0.12590722
H        1.22727830       1.32533568       1.69663236
H        2.15028751      -0.75150211       0.84633201
H        2.59379553       0.02265150      -0.72590624
H        0.31426260      -1.99262086      -0.23285459
H        0.71488594      -1.19096992      -1.85314752
18
Frame=2 idx=002702 GeodesicLength=0.17530882412053406 rxn_smarts="[C:1]([C:2]([C:3]1([H:12])[C:4]([H:13])([H:14])[C:5]([H:15])([H:16])[C:6]1([H:17])[H:18])([H:10])[H:11])([H:7])([H:8])[H:9]>>[C:1]([C:2]([C:3](=[C:4]([H:13])[H:14])[H:12])([H:10])[H:11])([H:7])([H:8])[H:9].[C:5](=[C:6]([H:17])[H:18])([H:15])[H:16]"
C       -2.17402721      -0.36666089      -0.22197852
C       -1.07238129       0.24430015       0.63151179
C        0.17833714       0.66883404      -0.09342530
C        1.18027852       1.39020404       0.61666047
C        1.83137413      -0.43199114      -0.13028423
C        0.83487344      -1.21801732      -0.77518203
H       -2.44574124       0.30185180      -1.04239291
H       -1.87666267      -1.32192036      -0.65245645
H       -3.07116608      -0.53100081       0.37717278
H       -1.43975840       1.16487247       1.10231708
H       -0.80318783      -0.42097276       1.45698704
H        0.02720742       0.99344944      -1.11754719
H        1.75886682       2.15934658       0.12781518
H        1.21465640       1.33768833       1.69626221
H        2.18200137      -0.76489074       0.83826360
H        2.61195165       0.00669334      -0.73916085
H        0.32978672      -1.99707930      -0.22409311
H        0.73359112      -1.21470687      -1.85046957
18
Frame=3 idx=002702 GeodesicLength=0.2629609611568313 rxn_smarts="[C:1]([C:2]([C:3]1([H:12])[C:4]([H:13])([H:14])[C:5]([H:15])([H:16])[C:6]1([H:17])[H:18])([H:10])[H:11])([H:7])([H:8])[H:9]>>[C:1]([C:2]([C:3](=[C:4]([H:13])[H:14])[H:12])([H:10])[H:11])([H:7])([H:8])[H:9].[C:5](=[C:6]([H:17])[H:18])([H:15])[H:16]"
C       -2.18436428      -0.35560185      -0.22277825
C       -1.08164168       0.24797546       0.63478448
C        0.16907794       0.67045440      -0.09081999
C        1.17594686       1.39010896       0.61491132
C        1.85369344      -0.44218828      -0.13447257
C        0.84611336      -1.22168062      -0.77070737
H       -2.46268094       0.32342942      -1.03224777
H       -1.88371579      -1.30328316      -0.66805905
H       -3.07854227      -0.53400906       0.37684469
H       -1.44807537       1.16354977       1.11544313
H       -0.81316171      -0.42691540       1.45291206
H        0.02225064       0.99353125      -1.11653558
H        1.74002260       2.17335564       0.13032864
H        1.20176914       1.34984056       1.69584210
H        2.21482187      -0.77851815       0.82944087
H        2.63050077      -0.00973589      -0.75325876
H        0.34591723      -2.00121614      -0.21459789
H        0.75206817      -1.23909690      -1.84703006
18
Frame=4 idx=002702 GeodesicLength=0.35062245372058964 rxn_smarts="[C:1]([C:2]([C:3]1([H:12])[C:4]([H:13])([H:14])[C:5]([H:15])([H:16])[C:6]1([H:17])[H:18])([H:10])[H:11])([H:7])([H:8])[H:9]>>[C:1]([C:2]([C:3](=[C:4]([H:13])[H:14])[H:12])([H:10])[H:11])([H:7])([H:8])[H:9].[C:5](=[C:6]([H:17])[H:18])([H:15])[H:16]"
C       -2.19488856      -0.34436337      -0.22369018
C       -1.09121751       0.25177005       0.63807872
C        0.15949692       0.67228973      -0.08813642
C        1.17155911       1.38978558       0.61329704
C        1.87671116      -0.45237527      -0.13906785
C        0.85756777      -1.22506608      -0.76589840
H       -2.47973039       0.34509161      -1.02198340
H       -1.89081192      -1.28411634      -0.68377812
H       -3.08610410      -0.53701282       0.37600394
H       -1.45671872       1.16219232       1.12861329
H       -0.82353027      -0.43277615       1.44867586
H        0.01715583       0.99376201      -1.11546425
H        1.72066786       2.18724819       0.13348924
H        1.18861978       1.36175849       1.69537261
H        2.24878908      -0.79237812       0.81980806
H        2.64944898      -0.02667071      -0.76824652
H        0.36268742      -2.00497885      -0.20431666
H        0.77029755      -1.26416026      -1.84275696
18
Frame=5 idx=002702 GeodesicLength=0.4382969241194419 rxn_smarts="[C:1]([C:2]([C:3]1([H:12])[C:4]([H:13])([H:14])[C:5]([H:15])([H:16])[C:6]1([H:17])[H:18])([H:10])[H:11])([H:7])([H:8])[H:9]>>[C:1]([C:2]([C:3](=[C:4]([H:13])[H:14])[H:12])([H:10])[H:11])([H:7])([H:8])[H:9].[C:5](=[C:6]([H:17])[H:18])([H:15])[H:16]"
C       -2.20560891      -0.33294565      -0.22472371
C       -1.10112382       0.25568511       0.64138977
C        0.14957456       0.67436189      -0.08537407
C        1.16710019       1.38923883       0.61182115
C        1.90045431      -0.46254183      -0.14409386
C        0.86926086      -1.22814711      -0.76073435
H       -2.49689693       0.36682271      -1.01161326
H       -1.89795365      -1.26441525      -0.69960598
H       -3.09386140      -0.54000647       0.37462795
H       -1.46571301       1.16079234       1.14182661
H       -0.83430500      -0.43855264       1.44426659
H        0.01191273       0.99415411      -1.11433335
H        1.70082435       2.20097890       0.13732755
H        1.17521387       1.37340662       1.69485424
H        2.28393339      -0.80646853       0.80931241
H        2.66880314      -0.04414625      -0.78416128
H        0.38012599      -2.00831321      -0.19320575
H        0.78825931      -1.28990356      -1.83758067
18
Frame=6 idx=002702 GeodesicLength=0.5259875504987694 rxn_smarts="[C:1]([C:2]([C:3]1([H:12])[C:4]([H:13])([H:14])[C:5]([H:15])([H:16])[C:6]1([H:17])[H:18])([H:10])[H:11])([H:7])([H:8])[H:9]>>[C:1]([C:2]([C:3](=[C:4]([H:13])[H:14])[H:12])([H:10])[H:11])([H:7])([H:8])[H:9].[C:5](=[C:6]([H:17])[H:18])([H:15])[H:16]"
C       -2.21653589      -0.32135039      -0.22589112
C       -1.11137918       0.25972081       0.64471104
C        0.13928823       0.67669357      -0.08253259
C        1.16255238       1.38847356       0.61049034
C        1.92495042      -0.47267381      -0.14957982
C        0.88122320      -1.23089240      -0.75518845
H       -2.51419737       0.38861443      -1.00115087
H       -1.90514368      -1.24417426      -0.71554327
H       -3.10182509      -0.54299015       0.37269386
H       -1.47508665       1.15933964       1.15508071
H       -0.84550004      -0.44424421       1.43966975
H        0.00651192       0.99471910      -1.11314407
H        1.68052609       2.21449686       0.14187368
H        1.16155859       1.38474170       1.69429230
H        2.32028778      -0.82078357       0.79789214
H        2.68856558      -0.06220866      -0.80105170
H        0.39827012      -2.01115130      -0.18120827
H        0.80593358      -1.31633093      -1.83141366
18
Frame=7 idx=002702 GeodesicLength=0.6136999594280327 rxn_smarts="[C:1]([C:2]([C:3]1([H:12])[C:4]([H:13])([H:14])[C:5]([H:15])([H:16])[C:6]1([H:17])[H:18])([H:10])[H:11])([H:7])([H:8])[H:9]>>[C:1]([C:2]([C:3](=[C:4]([H:13])[H:14])[H:12])([H:10])[H:11])([H:7])([H:8])[H:9].[C:5](=[C:6]([H:17])[H:18])([H:15])[H:16]"
C       -2.22767997      -0.30958071      -0.22720175
C       -1.12200060       0.26387535       0.64803699
C        0.12861471       0.67930900      -0.07961167
C        1.15789403       1.38749890       0.60930808
C        1.95022913      -0.48276049      -0.15554856
C        0.89348763      -1.23326755      -0.74923787
H       -2.53164576       0.41045305      -0.99061015
H       -1.91238491      -1.22339058      -0.73158657
H       -3.11000544      -0.54596334       0.37018091
H       -1.48486767       1.15782027       1.16837668
H       -0.85712485      -0.44985262       1.43486980
H        0.00093962       0.99547088      -1.11189722
H        1.65981585       2.22774810       0.14713748
H        1.14766361       1.39572192       1.69369159
H        2.35787115      -0.83532417       0.78549344
H        2.70874186      -0.08090363      -0.81895136
H        0.41714990      -2.01342256      -0.16827921
H        0.82330169      -1.34343183      -1.82417062
18
Frame=8 idx=002702 GeodesicLength=0.7014234542963315 rxn_smarts="[C:1]([C:2]([C:3]1([H:12])[C:4]([H:13])([H:14])[C:5]([H:15])([H:16])[C:6]1([H:17])[H:18])([H:10])[H:11])([H:7])([H:8])[H:9]>>[C:1]([C:2]([C:3](=[C:4]([H:13])[H:14])[H:12])([H:10])[H:11])([H:7])([H:8])[H:9].[C:5](=[C:6]([H:17])[H:18])([H:15])[H:16]"
C       -2.23905187      -0.29764057      -0.22866742
C       -1.13300448       0.26814476       0.65135966
C        0.11753120       0.68223212      -0.07661297
C        1.15310208       1.38632337       0.60827692
C        1.97631393      -0.49278501      -0.16202527
C        0.90608767      -1.23523684      -0.74286010
H       -2.54925983       0.43232601      -0.98000334
H       -1.91968096      -1.20206246      -0.74773422
H       -3.11841124      -0.54892560       0.36706556
H       -1.49508338       1.15621616       1.18171385
H       -0.86918698      -0.45538295       1.42984677
H       -0.00481578       0.99642104      -1.11059476
H        1.63874198       2.24067812       0.15313535
H        1.13354050       1.40630177       1.69305995
H        2.39670154      -0.85008384       0.77206134
H        2.72933456      -0.10029225      -0.83790147
H        0.43680069      -2.01504675      -0.15436234
H        0.84034038      -1.37118709      -1.81575751
18
Frame=9 idx=002702 GeodesicLength=0.7891632413976126 rxn_smarts="[C:1]([C:2]([C:3]1([H:12])[C:4]([H:13])([H:14])[C:5]([H:15])([H:16])[C:6]1([H:17])[H:18])([H:10])[H:11])([H:7])([H:8])[H:9]>>[C:1]([C:2]([C:3](=[C:4]([H:13])[H:14])[H:12])([H:10])[H:11])([H:7])([H:8])[H:9].[C:5](=[C:6]([H:17])[H:18])([H:15])[H:16]"
C       -2.25067007      -0.28553786      -0.23031939
C       -1.14442988       0.27252302       0.65466901
C        0.10599532       0.68550379      -0.07352389
C        1.14814060       1.38492955       0.60742571
C        2.00324875      -0.50271626      -0.16908785
C        0.91908044      -1.23673511      -0.73598804
H       -2.56707461       0.45423629      -0.96934727
H       -1.92702180      -1.18018694      -0.76401353
H       -3.12705542      -0.55189878       0.36329260
H       -1.50579192       1.15449980       1.19509460
H       -0.88171877      -0.46084688       1.42457627
H       -0.01076613       0.99758314      -1.10922865
H        1.61739921       2.25319168       0.15986189
H        1.11919588       1.41637151       1.69243348
H        2.43681257      -0.86500988       0.75747291
H        2.75030128      -0.12055213      -0.85803577
H        0.45730539      -2.01583319      -0.13931455
H        0.85704915      -1.39952175      -1.80596753
18
Frame=10 idx=002702 GeodesicLength=0.8768998868291391 rxn_smarts="[C:1]([C:2]([C:3]1([H:12])[C:4]([H:13])([H:14])[C:5]([H:15])([H:16])[C:6]1([H:17])[H:18])([H:10])[H:11])([H:7])([H:8])[H:9]>>[C:1]([C:2]([C:3](=[C:4]([H:13])[H:14])[H:12])([H:10])[H:11])([H:7])([H:8])[H:9].[C:5](=[C:6]([H:17])[H:18])([H:15])[H:16]"
C       -2.26253645      -0.27327668      -0.23215433
C       -1.15627380       0.27700551       0.65795792
C        0.09400219       0.68913393      -0.07035744
C        1.14299407       1.38335264       0.60673827
C        2.03104439      -0.51255555      -0.17672743
C        0.93248966      -1.23774625      -0.72863433
H       -2.58509044       0.47615043      -0.95865932
H       -1.93442184      -1.15776694      -0.78039553
H       -3.13594254      -0.55486492       0.35886416
H       -1.51699630       1.15265651       1.20851366
H       -0.89470406      -0.46624448       1.41903923
H       -0.01692460       0.99896865      -1.10780739
H        1.59581375       2.26527880       0.16733596
H        1.10465232       1.42592616       1.69180495
H        2.47818921      -0.88015022       0.74171821
H        2.77166049      -0.14165246      -0.87930647
H        0.47866452      -2.01577153      -0.12314735
H        0.87337944      -1.42844361      -1.79478278
18
Frame=11 idx=002702 GeodesicLength=0.9646272755794676 rxn_smarts="[C:1]([C:2]([C:3]1([H:12])[C:4]([H:13])([H:14])[C:5]([H:15])([H:16])[C:6]1([H:17])[H:18])([H:10])[H:11])([H:7])([H:8])[H:9]>>[C:1]([C:2]([C:3](=[C:4]([H:13])[H:14])[H:12])([H:10])[H:11])([H:7])([H:8])[H:9].[C:5](=[C:6]([H:17])[H:18])([H:15])[H:16]"
C       -2.27466176      -0.26086217      -0.23418732
C       -1.16855287       0.28158442       0.66121708
C        0.08153122       0.69314447      -0.06711367
C        1.13763381       1.38160234       0.60622123
C        2.05972739      -0.52228997      -0.18497782
C        0.94635840      -1.23823382      -0.72077016
H       -2.60332174       0.49805287      -0.94795785
H       -1.94188626      -1.13480326      -0.79687955
H       -3.14508078      -0.55782356       0.35375485
H       -1.52872514       1.15066224       1.22197088
H       -0.90814926      -0.47158489       1.41321156
H       -0.02330284       1.00058758      -1.10633097
H        1.57404946       2.27689567       0.17555154
H        1.08992444       1.43491134       1.69119830
H        2.52083871      -0.89550979       0.72473018
H        2.79339691      -0.16366443      -0.90174865
H        0.50091911      -2.01476106      -0.10579570
H        0.88930120      -1.45790799      -1.78209392
18
Frame=12 idx=002702 GeodesicLength=1.0523368619998466 rxn_smarts="[C:1]([C:2]([C:3]1([H:12])[C:4]([H:13])([H:14])[C:5]([H:15])([H:16])[C:6]1([H:17])[H:18])([H:10])[H:11])([H:7])([H:8])[H:9]>>[C:1]([C:2]([C:3](=[C:4]([H:13])[H:14])[H:12])([H:10])[H:11])([H:7])([H:8])[H:9].[C:5](=[C:6]([H:17])[H:18])([H:15])[H:16]"
C       -2.28705715      -0.24830096      -0.23643724
C       -1.18128616       0.28625042       0.66443533
C        0.06855991       0.69755864      -0.06379178
C        1.13203226       1.37968232       0.60588557
C        2.08932617      -0.53190381      -0.19388635
C        0.96073349      -1.23815626      -0.71236018
H       -2.62178652       0.51992948      -0.93726488
H       -1.94941923      -1.11129667      -0.81347028
H       -3.15447868      -0.56077664       0.34793354
H       -1.54100995       1.14848906       1.23546292
H       -0.92206326      -0.47687926       1.40706571
H       -0.02990983       1.00244875      -1.10479808
H        1.55217947       2.28799614       0.18451504
H        1.07502647       1.44326143       1.69064110
H        2.56476738      -0.91108118       0.70642786
H        2.81548220      -0.18668265      -0.92541669
H        0.52412175      -2.01267754      -0.08717232
H        0.90478166      -1.48786128      -1.76776928
18
Frame=13 idx=002702 GeodesicLength=1.1400214740802292 rxn_smarts="[C:1]([C:2]([C:3]1([H:12])[C:4]([H:13])([H:14])[C:5]([H:15])([H:16])[C:6]1([H:17])[H:18])([H:10])[H:11])([H:7])([H:8])[H:9]>>[C:1]([C:2]([C:3](=[C:4]([H:13])[H:14])[H:12])([H:10])[H:11])([H:7])([H:8])[H:9].[C:5](=[C:6]([H:17])[H:18])([H:15])[H:16]"
C       -2.29973150      -0.23560061      -0.23891811
C       -1.19448731       0.29099097       0.66760217
C        0.05506892       0.70239815      -0.06039303
C        1.12616081       1.37760046       0.60573462
C        2.11986864      -0.54138756      -0.20348998
C        0.97566245      -1.23747362      -0.70337647
H       -2.64049974       0.54176453      -0.92659900
H       -1.95702754      -1.08725135      -0.83016690
H       -3.16414202      -0.56372290       0.34137656
H       -1.55387627       1.14610383       1.24898963
H       -0.93644469      -0.48214261       1.40057120
H       -0.03675688       1.00456033      -1.10320873
H        1.53026989       2.29854316       0.19421480
H        1.05997174       1.45092502       1.69015783
H        2.60996487      -0.92687592       0.68674424
H        2.83789225      -0.21080090      -0.95033704
H        0.54831537      -2.00940177      -0.06720972
H        0.91979102      -1.51822921      -1.75169209
18
Frame=14 idx=002702 GeodesicLength=1.2276746418716302 rxn_smarts="[C:1]([C:2]([C:3]1([H:12])[C:4]([H:13])([H:14])[C:5]([H:15])([H:16])[C:6]1([H:17])[H:18])([H:10])[H:11])([H:7])([H:8])[H:9]>>[C:1]([C:2]([C:3](=[C:4]([H:13])[H:14])[H:12])([H:10])[H:11])([H:7])([H:8])[H:9].[C:5](=[C:6]([H:17])[H:18])([H:15])[H:16]"
C       -2.31269368      -0.22276897      -0.24164981
C       -1.20817051       0.29578920       0.67070466
C        0.04103826       0.70768435      -0.05691689
C        1.11999171       1.37536276       0.60578104
C        2.15138117      -0.55073223      -0.21384079
C        0.99119933      -1.23613886      -0.69378644
H       -2.65947871       0.56354628      -0.91597800
H       -1.96471410      -1.06266721      -0.84697920
H       -3.17407493      -0.56666642       0.33405045
H       -1.56735135       1.14346499       1.26255072
H       -0.95129365      -0.48739586       1.39369235
H       -0.04385092       1.00693088      -1.10156106
H        1.50839225       2.30850476       0.20464482
H        1.04477151       1.45784701       1.68978263
H        2.65641730      -0.94290093       0.66559664
H        2.86058140      -0.23614438      -0.97655963
H        0.57355780      -2.00478429      -0.04581779
H        0.93429713      -1.54893109      -1.73371369
18
Frame=15 idx=002702 GeodesicLength=1.3152887366371644 rxn_smarts="[C:1]([C:2]([C:3]1([H:12])[C:4]([H:13])([H:14])[C:5]([H:15])([H:16])[C:6]1([H:17])[H:18])([H:10])[H:11])([H:7])([H:8])[H:9]>>[C:1]([C:2]([C:3](=[C:4]([H:13])[H:14])[H:12])([H:10])[H:11])([H:7])([H:8])[H:9].[C:5](=[C:6]([H:17])[H:18])([H:15])[H:16]"
C       -2.32595005      -0.20981552      -0.24464620
C       -1.22234410       0.30062540       0.67373072
C        0.02645098       0.71343912      -0.05336607
C        1.11349844       1.37297502       0.60602777
C        2.18388726      -0.55993873      -0.22498511
C        1.00739848      -1.23410331      -0.68356659
H       -2.67873933       0.58525664      -0.90541438
H       -1.97248532      -1.03755078      -0.86390634
H       -3.18428029      -0.56960364       0.32593069
H       -1.58145536       1.14052561       1.27614852
H       -0.96659823      -0.49266327       1.38638930
H       -0.05120150       1.00956827      -1.09985545
H        1.48661231       2.31785627       0.21578621
H        1.02943473       1.46398652       1.68954363
H        2.70408710      -0.95917731       0.64291989
H        2.88350633      -0.26284140      -1.00409947
H        0.59990119      -1.99867627      -0.02293126
H        0.94827737      -1.57986261      -1.71370584
18
Frame=16 idx=002702 GeodesicLength=1.4028593266889855 rxn_smarts="[C:1]([C:2]([C:3]1([H:12])[C:4]([H:13])([H:14])[C:5]([H:15])([H:16])[C:6]1([H:17])[H:18])([H:10])[H:11])([H:7])([H:8])[H:9]>>[C:1]([C:2]([C:3](=[C:4]([H:13])[H:14])[H:12])([H:10])[H:11])([H:7])([H:8])[H:9].[C:5](=[C:6]([H:17])[H:18])([H:15])[H:16]"
C       -2.33950584      -0.19674928      -0.24792618
C       -1.23701571       0.30547558       0.67666653
C        0.01129198       0.71968338      -0.04974172
C        1.10665608       1.37044060       0.60648460
C        2.21741023      -0.56900862      -0.23698390
C        1.02431892      -1.23131550      -0.67269054
H       -2.69829669       0.60688447      -0.89492131
H       -1.98034498      -1.01190038      -0.88096037
H       -3.19475753      -0.57253642       0.31698394
H       -1.59620777       1.13723068       1.28978629
H       -0.98234642      -0.49797482       1.37861703
H       -0.05881353       1.01247902      -1.09809015
H        1.46499287       2.32658326       0.22763183
H        1.01396843       1.46930053       1.68947907
H        2.75293453      -0.97571932       0.61863820
H        2.90659653      -0.29104737      -1.03299355
H        0.62741224      -1.99090365       0.00153389
H        0.96170664      -1.61092217      -1.69151366
