13
Frame=0 idx=009775 GeodesicLength=0.0 rxn_smarts="[O:1]([C:2]([C:3]#[C:4][C:5]([C:6](=[O:7])[H:13])([H:11])[H:12])([H:9])[H:10])[H:8]>>[O:1]([C:2]([C:3]#[C:4][C@@:6]1([H:13])[C:5]([H:11])([H:12])[O:7]1)([H:9])[H:10])[H:8]"
O        2.67171682       1.26738812      -0.29747542
C        2.22312197      -0.06697504      -0.28404895
C        0.76960844      -0.20007491      -0.37987084
C       -0.43147434      -0.30312113      -0.48836530
C       -1.90308893      -0.16017862       0.95023617
C       -1.96089035      -0.35052118      -0.48603182
O       -2.68377470       0.62364327      -0.97947669
H        2.15267583       1.77663887       0.32821860
H        2.56155803      -0.59924520       0.61477162
H        2.68613041      -0.55858284      -1.14203384
H       -1.75903213       0.86914189       1.25527887
H       -2.11328921      -0.91709882       1.70570975
H       -2.21326179      -1.38101435      -0.79691215
13
Frame=1 idx=009775 GeodesicLength=0.06907941038085491 rxn_smarts="[O:1]([C:2]([C:3]#[C:4][C:5]([C:6](=[O:7])[H:13])([H:11])[H:12])([H:9])[H:10])[H:8]>>[O:1]([C:2]([C:3]#[C:4][C@@:6]1([H:13])[C:5]([H:11])([H:12])[O:7]1)([H:9])[H:10])[H:8]"
O        2.68035041       1.26684315      -0.32882115
C        2.23184235      -0.06685177      -0.27633126
C        0.77829236      -0.20253895      -0.37024518
C       -0.42332960      -0.30336581      -0.46533717
C       -1.90733926      -0.16905461       0.94182000
C       -1.96689138      -0.34789174      -0.49712810
O       -2.70347933       0.64135844      -0.93266169
H        2.16245429       1.79322038       0.28355680
H        2.56948260      -0.57160562       0.63845381
H        2.69603200      -0.58350396      -1.11877930
H       -1.75044001       0.84995563       1.27404149
H       -2.14700489      -0.93546656       1.67857777
H       -2.21996955      -1.37109857      -0.82714602
13
Frame=2 idx=009775 GeodesicLength=0.1381712532138289 rxn_smarts="[O:1]([C:2]([C:3]#[C:4][C:5]([C:6](=[O:7])[H:13])([H:11])[H:12])([H:9])[H:10])[H:8]>>[O:1]([C:2]([C:3]#[C:4][C@@:6]1([H:13])[C:5]([H:11])([H:12])[O:7]1)([H:9])[H:10])[H:8]"
O        2.68902955       1.26491295      -0.36308405
C        2.24060233      -0.06667205      -0.26778464
C        0.78699847      -0.20519596      -0.35913831
C       -0.41505769      -0.30356917      -0.44086490
C       -1.91198856      -0.17927217       0.93373696
C       -1.97248603      -0.34252269      -0.50842470
O       -2.72264997       0.65887434      -0.88460961
H        2.17237890       1.80973260       0.23404025
H        2.57754966      -0.54079757       0.66339405
H        2.70586971      -0.61018240      -1.09246780
H       -1.74359431       0.82790697       1.29527213
H       -2.18052404      -0.95576129       1.64956123
H       -2.22612802      -1.35745355      -0.85963061
13
Frame=3 idx=009775 GeodesicLength=0.20734442435441197 rxn_smarts="[O:1]([C:2]([C:3]#[C:4][C:5]([C:6](=[O:7])[H:13])([H:11])[H:12])([H:9])[H:10])[H:8]>>[O:1]([C:2]([C:3]#[C:4][C@@:6]1([H:13])[C:5]([H:11])([H:12])[O:7]1)([H:9])[H:10])[H:8]"
O        2.69793859       1.26117427      -0.40145476
C        2.24952670      -0.06636768      -0.25823349
C        0.79577192      -0.20782339      -0.34525621
C       -0.40659230      -0.30344989      -0.41411415
C       -1.91760089      -0.19129050       0.92606199
C       -1.97746080      -0.33396035      -0.51981743
O       -2.74108093       0.67651524      -0.83511274
H        2.18304396       1.82619698       0.17818498
H        2.58642683      -0.50595086       0.68967509
H        2.71522000      -0.63911700      -1.06256965
H       -1.73941065       0.80217486       1.31961718
H       -2.21460492      -0.97883732       1.61804807
H       -2.23117751      -1.33926437      -0.89502887
13
Frame=4 idx=009775 GeodesicLength=0.2766829397303745 rxn_smarts="[O:1]([C:2]([C:3]#[C:4][C:5]([C:6](=[O:7])[H:13])([H:11])[H:12])([H:9])[H:10])[H:8]>>[O:1]([C:2]([C:3]#[C:4][C@@:6]1([H:13])[C:5]([H:11])([H:12])[O:7]1)([H:9])[H:10])[H:8]"
O        2.70738156       1.25461571      -0.44610366
C        2.25860827      -0.06581848      -0.24693031
C        0.80459665      -0.21004451      -0.32783336
C       -0.39795629      -0.30252042      -0.38467903
C       -1.92439969      -0.20631400       0.91888169
C       -1.98165070      -0.32106406      -0.53118982
O       -2.75864787       0.69550326      -0.78279178
H        2.19471462       1.84285848       0.11204008
H        2.59578902      -0.46460807       0.71867051
H        2.72414579      -0.67190132      -1.02647859
H       -1.73821574       0.77064224       1.34861503
H       -2.24956391      -1.00682945       1.58264923
H       -2.23480172      -1.31451938      -0.93484999
13
Frame=5 idx=009775 GeodesicLength=0.3461183981160838 rxn_smarts="[O:1]([C:2]([C:3]#[C:4][C:5]([C:6](=[O:7])[H:13])([H:11])[H:12])([H:9])[H:10])[H:8]>>[O:1]([C:2]([C:3]#[C:4][C@@:6]1([H:13])[C:5]([H:11])([H:12])[O:7]1)([H:9])[H:10])[H:8]"
O        2.71691826       1.24523524      -0.49339207
C        2.26767524      -0.06496937      -0.23489752
C        0.81330839      -0.21151705      -0.30814565
C       -0.38933731      -0.30069147      -0.35331352
C       -1.93184915      -0.22237034       0.91187151
C       -1.98513330      -0.30508450      -0.54221480
O       -2.77664699       0.71278869      -0.72937054
H        2.20706964       1.85737891       0.04116158
H        2.60573616      -0.41980770       0.74732361
H        2.73240249      -0.70535348      -0.98695016
H       -1.74017976       0.73605420       1.37948274
H       -2.28368330      -1.03639429       1.54480299
H       -2.23628037      -1.28526884      -0.97635818
13
Frame=6 idx=009775 GeodesicLength=0.4156346399709685 rxn_smarts="[O:1]([C:2]([C:3]#[C:4][C:5]([C:6](=[O:7])[H:13])([H:11])[H:12])([H:9])[H:10])[H:8]>>[O:1]([C:2]([C:3]#[C:4][C@@:6]1([H:13])[C:5]([H:11])([H:12])[O:7]1)([H:9])[H:10])[H:8]"
O        2.72644538       1.23268566      -0.54275085
C        2.27660588      -0.06377306      -0.22214208
C        0.82182126      -0.21207327      -0.28676300
C       -0.38083440      -0.29780008      -0.32041615
C       -1.93962952      -0.23926667       0.90493532
C       -1.98796660      -0.28598632      -0.55268008
O       -2.79547378       0.72792935      -0.67484546
H        2.21979924       1.86912737      -0.03411944
H        2.61584526      -0.37164418       0.77532370
H        2.74013550      -0.73904601      -0.94373332
H       -1.74503537       0.69850462       1.41180530
H       -2.31621226      -1.06729518       1.50450633
H       -2.23550058      -1.25136224      -1.01912028
13
Frame=7 idx=009775 GeodesicLength=0.4852715928281307 rxn_smarts="[O:1]([C:2]([C:3]#[C:4][C:5]([C:6](=[O:7])[H:13])([H:11])[H:12])([H:9])[H:10])[H:8]>>[O:1]([C:2]([C:3]#[C:4][C@@:6]1([H:13])[C:5]([H:11])([H:12])[O:7]1)([H:9])[H:10])[H:8]"
O        2.73571066       1.21648068      -0.59478568
C        2.28543352      -0.06207257      -0.20859114
C        0.83014289      -0.21150223      -0.26269657
C       -0.37241513      -0.29395112      -0.28538760
C       -1.94802938      -0.25723472       0.89802170
C       -1.98996916      -0.26344617      -0.56234319
O       -2.81489497       0.74103271      -0.61925278
H        2.23303344       1.87760794      -0.11447128
H        2.62676527      -0.31947844       0.80228568
H        2.74699770      -0.77285448      -0.89646955
H       -1.75313277       0.65736013       1.44573021
H       -2.34754454      -1.09988953       1.46121424
H       -2.23209754      -1.21205219      -1.06325405
13
Frame=8 idx=009775 GeodesicLength=0.5551000109647344 rxn_smarts="[O:1]([C:2]([C:3]#[C:4][C:5]([C:6](=[O:7])[H:13])([H:11])[H:12])([H:9])[H:10])[H:8]>>[O:1]([C:2]([C:3]#[C:4][C@@:6]1([H:13])[C:5]([H:11])([H:12])[O:7]1)([H:9])[H:10])[H:8]"
O        2.74501736       1.19548117      -0.65002012
C        2.29412924      -0.05985863      -0.19386874
C        0.83826408      -0.20942928      -0.23611705
C       -0.36416921      -0.28778762      -0.24826625
C       -1.95691895      -0.27674804       0.89106023
C       -1.99118118      -0.23662847      -0.57082284
O       -2.83569517       0.75199178      -0.56172274
H        2.24662771       1.88203982      -0.20197108
H        2.63795961      -0.26215728       0.82854870
H        2.75321433      -0.80725580      -0.84344915
H       -1.76505281       0.61151363       1.48173707
H       -2.37676114      -1.13529320       1.41398539
H       -2.22543386      -1.16586808      -1.10909343
13
Frame=9 idx=009775 GeodesicLength=0.6250439450672951 rxn_smarts="[O:1]([C:2]([C:3]#[C:4][C:5]([C:6](=[O:7])[H:13])([H:11])[H:12])([H:9])[H:10])[H:8]>>[O:1]([C:2]([C:3]#[C:4][C@@:6]1([H:13])[C:5]([H:11])([H:12])[O:7]1)([H:9])[H:10])[H:8]"
O        2.75330566       1.16905690      -0.70914945
C        2.30260538      -0.05663075      -0.17768257
C        0.84619318      -0.20607928      -0.20630968
C       -0.35597549      -0.28146676      -0.20873101
C       -1.96623155      -0.29831894       0.88383104
C       -1.99131591      -0.20503492      -0.57770818
O       -2.85632512       0.76184484      -0.50194604
H        2.25961085       1.88148885      -0.29777508
H        2.64972027      -0.19796361       0.85375005
H        2.75900170      -0.84156957      -0.78330485
H       -1.77947442       0.55935876       1.51985303
H       -2.40496190      -1.17345168       1.36180299
H       -2.21615265      -1.11123384      -1.15663025
13
Frame=10 idx=009775 GeodesicLength=0.6952920841636996 rxn_smarts="[O:1]([C:2]([C:3]#[C:4][C:5]([C:6](=[O:7])[H:13])([H:11])[H:12])([H:9])[H:10])[H:8]>>[O:1]([C:2]([C:3]#[C:4][C@@:6]1([H:13])[C:5]([H:11])([H:12])[O:7]1)([H:9])[H:10])[H:8]"
O        2.76136357       1.13605431      -0.77106313
C        2.31091945      -0.05257362      -0.16048179
C        0.85386879      -0.20002916      -0.17310724
C       -0.34803961      -0.27147433      -0.16623173
C       -1.97613421      -0.32135679       0.87621442
C       -1.99056489      -0.16860560      -0.58238401
O       -2.87929625       0.76802143      -0.44054859
H        2.27303641       1.87426763      -0.40077166
H        2.66248857      -0.12829489       0.87625508
H        2.76353262      -0.87511846      -0.71694388
H       -1.79903832       0.50166436       1.55929479
H       -2.42999257      -1.21433071       1.30448537
H       -2.20214356      -1.04822417      -1.20471762
13
Frame=11 idx=009775 GeodesicLength=0.7654984990025223 rxn_smarts="[O:1]([C:2]([C:3]#[C:4][C:5]([C:6](=[O:7])[H:13])([H:11])[H:12])([H:9])[H:10])[H:8]>>[O:1]([C:2]([C:3]#[C:4][C@@:6]1([H:13])[C:5]([H:11])([H:12])[O:7]1)([H:9])[H:10])[H:8]"
O        2.76747668       1.09702769      -0.83395835
C        2.31873424      -0.04722678      -0.14222430
C        0.86123072      -0.19282185      -0.13837641
C       -0.34027359      -0.26212674      -0.12250767
C       -1.98543578      -0.34541816       0.86779282
C       -1.98905689      -0.12786635      -0.58457690
O       -2.90227674       0.77164161      -0.37786561
H        2.28416336       1.85947227      -0.50893762
H        2.67495810      -0.05287589       0.89559399
H        2.76836846      -0.90576040      -0.64394807
H       -1.81959068       0.43834739       1.59844178
H       -2.45228345      -1.25563674       1.24247982
H       -2.18601442      -0.97675603      -1.25191349
13
Frame=12 idx=009775 GeodesicLength=0.8358684872662483 rxn_smarts="[O:1]([C:2]([C:3]#[C:4][C:5]([C:6](=[O:7])[H:13])([H:11])[H:12])([H:9])[H:10])[H:8]>>[O:1]([C:2]([C:3]#[C:4][C@@:6]1([H:13])[C:5]([H:11])([H:12])[O:7]1)([H:9])[H:10])[H:8]"
O        2.77259499       1.05171295      -0.89615822
C        2.32609263      -0.04096031      -0.12381058
C        0.86814909      -0.18272460      -0.10201020
C       -0.33292196      -0.24949862      -0.07680655
C       -1.99435615      -0.36946935       0.85860223
C       -1.98727310      -0.08349080      -0.58382114
O       -2.92799745       0.76955093      -0.31559202
H        2.29475840       1.83628161      -0.61923880
H        2.68796578       0.02527675       0.90986760
H        2.77211071      -0.93283364      -0.56708316
H       -1.84387548       0.37134324       1.63611684
H       -2.46942246      -1.29690966       1.17650251
H       -2.16582501      -0.89827849      -1.29656849
13
Frame=13 idx=009775 GeodesicLength=0.9061715244834335 rxn_smarts="[O:1]([C:2]([C:3]#[C:4][C:5]([C:6](=[O:7])[H:13])([H:11])[H:12])([H:9])[H:10])[H:8]>>[O:1]([C:2]([C:3]#[C:4][C@@:6]1([H:13])[C:5]([H:11])([H:12])[O:7]1)([H:9])[H:10])[H:8]"
O        2.77564790       1.00101447      -0.95604072
C        2.33282528      -0.03362359      -0.10522633
C        0.87465993      -0.17158546      -0.06576391
C       -0.32587322      -0.23668428      -0.03070527
C       -2.00199667      -0.39304279       0.84840289
C       -1.98546705      -0.03602928      -0.58001978
O       -2.95461134       0.76280723      -0.25420277
H        2.30250366       1.80447862      -0.72987791
H        2.70019598       0.10598217       0.91908561
H        2.77637092      -0.95488880      -0.48638665
H       -1.86868430       0.30101930       1.67109894
H       -2.48172842      -1.33635625       1.10724155
H       -2.14384266      -0.81309133      -1.33760565
13
Frame=14 idx=009775 GeodesicLength=0.9763252233065639 rxn_smarts="[O:1]([C:2]([C:3]#[C:4][C:5]([C:6](=[O:7])[H:13])([H:11])[H:12])([H:9])[H:10])[H:8]>>[O:1]([C:2]([C:3]#[C:4][C@@:6]1([H:13])[C:5]([H:11])([H:12])[O:7]1)([H:9])[H:10])[H:8]"
O        2.77612432       0.94565593      -1.01256047
C        2.33891365      -0.02499495      -0.08640150
C        0.88087211      -0.16116230      -0.03079299
C       -0.31895767      -0.22660254       0.01441411
C       -2.00791731      -0.41594670       0.83702425
C       -1.98377780       0.01409582      -0.57305591
O       -2.98043830       0.75274643      -0.19383131
H        2.30581702       1.76391662      -0.83982017
H        2.71042144       0.18954336       0.92327480
H        2.78268922      -0.97067566      -0.40164904
H       -1.89164600       0.22744984       1.70263125
H       -2.49014812      -1.37267927       1.03511152
H       -2.12195255      -0.72134659      -1.37434454
13
Frame=15 idx=009775 GeodesicLength=1.0470935404336958 rxn_smarts="[O:1]([C:2]([C:3]#[C:4][C:5]([C:6](=[O:7])[H:13])([H:11])[H:12])([H:9])[H:10])[H:8]>>[O:1]([C:2]([C:3]#[C:4][C@@:6]1([H:13])[C:5]([H:11])([H:12])[O:7]1)([H:9])[H:10])[H:8]"
O        2.77692784       0.88421747      -1.06654312
C        2.34420338      -0.01653523      -0.07000357
C        0.88583491      -0.14028533       0.00793604
C       -0.31326293      -0.20264798       0.06591072
C       -2.01405421      -0.43699114       0.82552432
C       -1.98355843       0.06545821      -0.56232896
O       -3.01473342       0.72898744      -0.13987079
H        2.31535704       1.71644524      -0.94422534
H        2.72578324       0.26709752       0.91857213
H        2.78125682      -0.98406255      -0.32182709
H       -1.92465989       0.15436277       1.73078114
H       -2.48734739      -1.40906252       0.96106671
H       -2.09174696      -0.62698389      -1.40499221
13
Frame=16 idx=009775 GeodesicLength=1.1170574155352897 rxn_smarts="[O:1]([C:2]([C:3]#[C:4][C:5]([C:6](=[O:7])[H:13])([H:11])[H:12])([H:9])[H:10])[H:8]>>[O:1]([C:2]([C:3]#[C:4][C@@:6]1([H:13])[C:5]([H:11])([H:12])[O:7]1)([H:9])[H:10])[H:8]"
O        2.77330980       0.82136011      -1.11392128
C        2.34889490      -0.00638923      -0.05231950
C        0.89111774      -0.12915291       0.04068355
C       -0.30696723      -0.19276143       0.11084631
C       -2.01687741      -0.45678578       0.81224741
C       -1.98305798       0.11867975      -0.54891711
O       -3.04102995       0.70851025      -0.08625741
H        2.31234029       1.66014362      -1.04667023
H        2.73347340       0.34992516       0.91115272
H        2.78912729      -0.98770816      -0.23556103
H       -1.94692588       0.07831203       1.75362312
H       -2.48517240      -1.43797458       0.88561760
H       -2.06823257      -0.52615881      -1.43052415
