19
Frame=0 idx=008673 GeodesicLength=0.0 rxn_smarts="[C:1]([C:2]1([O:3][H:11])[C:4]([H:12])([H:13])[C:5]([H:14])([H:15])[C:6]([H:16])([H:17])[C:7]1([H:18])[H:19])([H:8])([H:9])[H:10]>>[C:1](/[C:2]([O:3][H:11])=[C:7](/[C:6]([H:16])([H:17])[H:19])[H:18])([H:8])([H:9])[H:10].[C:4](=[C:5]([H:14])[H:15])([H:12])[H:13]"
C        1.98833745      -0.92782108      -0.52228373
C        0.70961767      -0.61270419       0.17993693
O        0.79499140      -0.40937860       1.53884836
C        0.04004546       1.67244197      -0.40229448
C       -1.26408953       1.74884696      -0.02636543
C       -1.75621124      -0.52904768       0.39957403
C       -0.54246425      -0.98654239      -0.28048599
H        2.68661335      -0.08719526      -0.45121291
H        1.80896228      -1.11585783      -1.58027786
H        2.48179082      -1.80844398      -0.09432364
H        1.68967002      -0.15391192       1.76797370
H        0.83204123       1.92523285       0.29086853
H        0.31921338       1.62143323      -1.44813774
H       -1.53692606       2.05936960       0.97382675
H       -2.05521630       1.78672072      -0.76470695
H       -2.71324427      -0.73036065      -0.06270921
H       -1.72392811      -0.40337244       1.47183173
H       -0.63150693      -1.19303988      -1.33968897
H       -1.12769643      -1.85636944       0.34962690
19
Frame=1 idx=008673 GeodesicLength=0.09325906184417658 rxn_smarts="[C:1]([C:2]1([O:3][H:11])[C:4]([H:12])([H:13])[C:5]([H:14])([H:15])[C:6]([H:16])([H:17])[C:7]1([H:18])[H:19])([H:8])([H:9])[H:10]>>[C:1](/[C:2]([O:3][H:11])=[C:7](/[C:6]([H:16])([H:17])[H:19])[H:18])([H:8])([H:9])[H:10].[C:4](=[C:5]([H:14])[H:15])([H:12])[H:13]"
C        1.98993814      -0.92824119      -0.51454678
C        0.70327922      -0.60880176       0.17187916
O        0.77931438      -0.40774208       1.53322296
C        0.04676409       1.66736082      -0.41159149
C       -1.24608034       1.75802608       0.00980595
C       -1.76337021      -0.54791939       0.37964986
C       -0.54214399      -1.01182202      -0.28857799
H        2.67933031      -0.07921591      -0.46140136
H        1.82160664      -1.14824065      -1.56819353
H        2.49222441      -1.78972151      -0.05929561
H        1.65680845      -0.09424340       1.75674793
H        0.86368566       1.94821550       0.24114242
H        0.28281425       1.62533935      -1.46881426
H       -1.47277408       2.06757023       1.02226555
H       -2.06147009       1.84510255      -0.69758474
H       -2.71213551      -0.73877883      -0.10516329
H       -1.75791319      -0.43723713       1.45433498
H       -0.61781134      -1.23903864      -1.34475419
H       -1.14206680      -1.88061201       0.35087443
19
Frame=2 idx=008673 GeodesicLength=0.18517541432273582 rxn_smarts="[C:1]([C:2]1([O:3][H:11])[C:4]([H:12])([H:13])[C:5]([H:14])([H:15])[C:6]([H:16])([H:17])[C:7]1([H:18])[H:19])([H:8])([H:9])[H:10]>>[C:1](/[C:2]([O:3][H:11])=[C:7](/[C:6]([H:16])([H:17])[H:19])[H:18])([H:8])([H:9])[H:10].[C:4](=[C:5]([H:14])[H:15])([H:12])[H:13]"
C        1.99128410      -0.92759541      -0.50727791
C        0.69679480      -0.60516637       0.16375940
O        0.76431339      -0.40645145       1.52749498
C        0.05295557       1.66242145      -0.42046296
C       -1.22735563       1.76664927       0.04510496
C       -1.77012931      -0.56629538       0.36005644
C       -0.54159446      -1.03759271      -0.29570889
H        2.67174806      -0.07070240      -0.47146338
H        1.83418343      -1.17824093      -1.55582863
H        2.50218075      -1.76950937      -0.02620300
H        1.62206486      -0.03865402       1.74513251
H        0.89229700       1.97014195       0.19098589
H        0.24592689       1.62957019      -1.48716486
H       -1.40816053       2.07594153       1.06740728
H       -2.06394404       1.90035415      -0.62987667
H       -2.71002818      -0.74627700      -0.14718107
H       -1.79150884      -0.46832504       1.43608599
H       -0.60379996      -1.28578352      -1.34822289
H       -1.15722789      -1.90448494       0.35336281
19
Frame=3 idx=008673 GeodesicLength=0.2759821512028224 rxn_smarts="[C:1]([C:2]1([O:3][H:11])[C:4]([H:12])([H:13])[C:5]([H:14])([H:15])[C:6]([H:16])([H:17])[C:7]1([H:18])[H:19])([H:8])([H:9])[H:10]>>[C:1](/[C:2]([O:3][H:11])=[C:7](/[C:6]([H:16])([H:17])[H:19])[H:18])([H:8])([H:9])[H:10].[C:4](=[C:5]([H:14])[H:15])([H:12])[H:13]"
C        1.99234959      -0.92596055      -0.50049928
C        0.69016261      -0.60179484       0.15560016
O        0.74993894      -0.40549161       1.52169998
C        0.05866190       1.65763089      -0.42885601
C       -1.20796473       1.77480186       0.07962624
C       -1.77652599      -0.58426476       0.34071667
C       -0.54079869      -1.06385098      -0.30185383
H        2.66383168      -0.06167777      -0.48147980
H        1.84662996      -1.20597240      -1.54327752
H        2.51165198      -1.74793526       0.00499635
H        1.58580112       0.01302804       1.73324157
H        0.91793012       1.99111529       0.14059761
H        0.20866783       1.63412099      -1.50315937
H       -1.34315921       2.08477562       1.10935701
H       -2.06282076       1.95261643      -0.56188951
H       -2.70688478      -0.75304958      -0.18889679
H       -1.82484762      -0.49683215       1.41709735
H       -0.58943408      -1.33326020      -1.35003255
H       -1.17318988      -1.92799901       0.35701170
19
Frame=4 idx=008673 GeodesicLength=0.36588748953916583 rxn_smarts="[C:1]([C:2]1([O:3][H:11])[C:4]([H:12])([H:13])[C:5]([H:14])([H:15])[C:6]([H:16])([H:17])[C:7]1([H:18])[H:19])([H:8])([H:9])[H:10]>>[C:1](/[C:2]([O:3][H:11])=[C:7](/[C:6]([H:16])([H:17])[H:19])[H:18])([H:8])([H:9])[H:10].[C:4](=[C:5]([H:14])[H:15])([H:12])[H:13]"
C        1.99311943      -0.92342225      -0.49421891
C        0.68338252      -0.59867225       0.14741130
O        0.73613671      -0.40481496       1.51585740
C        0.06390216       1.65300973      -0.43672901
C       -1.18794879       1.78256857       0.11348563
C       -1.78259183      -0.60190787       0.32153514
C       -0.53973354      -1.09058527      -0.30700079
H        2.65553597      -0.05216506      -0.49156838
H        1.85892075      -1.23165595      -1.53059171
H        2.52065979      -1.72508457       0.03441926
H        1.54835359       0.06093393       1.72117595
H        0.94062529       2.01122834       0.09011596
H        0.17107770       1.63899595      -1.51679206
H       -1.27778963       2.09430944       1.14825895
H       -2.05831833       2.00209315      -0.49382040
H       -2.70265422      -0.75926628      -0.23046963
H       -1.85805937      -0.52295158       1.39734107
H       -0.57465665      -1.38145459      -1.35013233
H       -1.18996157      -1.95115848       0.36172257
19
Frame=5 idx=008673 GeodesicLength=0.4550174300354932 rxn_smarts="[C:1]([C:2]1([O:3][H:11])[C:4]([H:12])([H:13])[C:5]([H:14])([H:15])[C:6]([H:16])([H:17])[C:7]1([H:18])[H:19])([H:8])([H:9])[H:10]>>[C:1](/[C:2]([O:3][H:11])=[C:7](/[C:6]([H:16])([H:17])[H:19])[H:18])([H:8])([H:9])[H:10].[C:4](=[C:5]([H:14])[H:15])([H:12])[H:13]"
C        1.99355568      -0.92005041      -0.48841762
C        0.67644680      -0.59572826       0.13924880
O        0.72280903      -0.40429078       1.51001954
C        0.06873015       1.64861979      -0.44404959
C       -1.16742070       1.79003889       0.14669242
C       -1.78836713      -0.61928209       0.30244038
C       -0.53837600      -1.11772276      -0.31110269
H        2.64686844      -0.04223241      -0.50176887
H        1.87100411      -1.25539740      -1.51781687
H        2.52909354      -1.70113694       0.06212718
H        1.51020771       0.10510599       1.70894038
H        0.96067557       2.03057091       0.03977107
H        0.13321140       1.64420206      -1.52812359
H       -1.21215530       2.10467213       1.18412283
H       -2.05084942       2.04889783      -0.42570078
H       -2.69728114      -0.76512677      -0.27203827
H       -1.89126094      -0.54685403       1.37670615
H       -0.55936502      -1.43038878      -1.34847899
H       -1.20752678      -1.97389696       0.36742852
19
Frame=6 idx=008673 GeodesicLength=0.5434929919606648 rxn_smarts="[C:1]([C:2]1([O:3][H:11])[C:4]([H:12])([H:13])[C:5]([H:14])([H:15])[C:6]([H:16])([H:17])[C:7]1([H:18])[H:19])([H:8])([H:9])[H:10]>>[C:1](/[C:2]([O:3][H:11])=[C:7](/[C:6]([H:16])([H:17])[H:19])[H:18])([H:8])([H:9])[H:10].[C:4](=[C:5]([H:14])[H:15])([H:12])[H:13]"
C        1.99364624      -0.91591818      -0.48311958
C        0.66934435      -0.59299031       0.13109062
O        0.70994724      -0.40393485       1.50417777
C        0.07314169       1.64444891      -0.45077948
C       -1.14636880       1.79727020       0.17939552
C       -1.79386932      -0.63646075       0.28334776
C       -0.53672698      -1.14528329      -0.31415192
H        2.63776379      -0.03190463      -0.51220964
H        1.88283937      -1.27737912      -1.50499328
H        2.53702992      -1.67610541       0.08819337
H        1.47154630       0.14576915       1.69666143
H        0.97794807       2.04921511      -0.01035594
H        0.09515729       1.64974683      -1.53709055
H       -1.14625498       2.11600487       1.21713386
H       -2.04039473       2.09321197      -0.35781491
H       -2.69071813      -0.77076114      -0.31370865
H       -1.92452993      -0.56868843       1.35517827
H       -0.54357156      -1.47999572      -1.34498478
H       -1.22592984      -1.99624521       0.37403012
19
Frame=7 idx=008673 GeodesicLength=0.6314707253237939 rxn_smarts="[C:1]([C:2]1([O:3][H:11])[C:4]([H:12])([H:13])[C:5]([H:14])([H:15])[C:6]([H:16])([H:17])[C:7]1([H:18])[H:19])([H:8])([H:9])[H:10]>>[C:1](/[C:2]([O:3][H:11])=[C:7](/[C:6]([H:16])([H:17])[H:19])[H:18])([H:8])([H:9])[H:10].[C:4](=[C:5]([H:14])[H:15])([H:12])[H:13]"
C        1.99337347      -0.91110625      -0.47832158
C        0.66206601      -0.59044106       0.12295144
O        0.69749075      -0.40370475       1.49834607
C        0.07713199       1.64050757      -0.45691245
C       -1.12477779       1.80432307       0.21175100
C       -1.79911930      -0.65350231       0.26414228
C       -0.53476447      -1.17324874      -0.31611692
H        2.62817981      -0.02121820      -0.52297406
H        1.89441211      -1.29780752      -1.49214798
H        2.54446693      -1.65005572       0.11273303
H        1.43265819       0.18314313       1.68442026
H        0.99252641       2.06723901      -0.06021200
H        0.05686328       1.65559084      -1.54373280
H       -1.08001620       2.12835053       1.24748196
H       -2.02724055       2.13529908      -0.29021510
H       -2.68286968      -0.77627951      -0.35568338
H       -1.95797657      -0.58860946       1.33262670
H       -0.52720365      -1.53030102      -1.33957729
H       -1.24520074      -2.01817867       0.38144081
19
Frame=8 idx=008673 GeodesicLength=0.7190041478619186 rxn_smarts="[C:1]([C:2]1([O:3][H:11])[C:4]([H:12])([H:13])[C:5]([H:14])([H:15])[C:6]([H:16])([H:17])[C:7]1([H:18])[H:19])([H:8])([H:9])[H:10]>>[C:1](/[C:2]([O:3][H:11])=[C:7](/[C:6]([H:16])([H:17])[H:19])[H:18])([H:8])([H:9])[H:10].[C:4](=[C:5]([H:14])[H:15])([H:12])[H:13]"
C        1.99271046      -0.90567494      -0.47403042
C        0.65459400      -0.58806434       0.11484645
O        0.68539552      -0.40353820       1.49254396
C        0.08072164       1.63681747      -0.46241882
C       -1.10266593       1.81125537       0.24381968
C       -1.80413824      -0.67045269       0.24475548
C       -0.53248929      -1.20158729      -0.31695286
H        2.61808228      -0.01022245      -0.53414517
H        1.90567874      -1.31679481      -1.47930890
H        2.55138805      -1.62305514       0.13578976
H        1.39384103       0.21733663       1.67226760
H        1.00442815       2.08472321      -0.10967421
H        0.01839665       1.66174453      -1.54803003
H       -1.01348083       2.14169442       1.27523978
H       -2.01151935       2.17527414      -0.22303274
H       -2.67366980      -0.78181762      -0.39804862
H       -1.99166986      -0.60671336       1.30895239
H       -0.51023201      -1.58125766      -1.33216057
H       -1.26537122      -2.03966727       0.38958727
19
Frame=9 idx=008673 GeodesicLength=0.8061343066652152 rxn_smarts="[C:1]([C:2]1([O:3][H:11])[C:4]([H:12])([H:13])[C:5]([H:14])([H:15])[C:6]([H:16])([H:17])[C:7]1([H:18])[H:19])([H:8])([H:9])[H:10]>>[C:1](/[C:2]([O:3][H:11])=[C:7](/[C:6]([H:16])([H:17])[H:19])[H:18])([H:8])([H:9])[H:10].[C:4](=[C:5]([H:14])[H:15])([H:12])[H:13]"
C        1.99161585      -0.89967692      -0.47020582
C        0.64691053      -0.58578178       0.10681735
O        0.67358206      -0.40330731       1.48680758
C        0.08395129       1.63343996      -0.46731296
C       -1.08011790       1.81815579       0.27558688
C       -1.80894949      -0.68733602       0.22509470
C       -0.52989355      -1.23020191      -0.31661632
H        2.60748432       0.00098747      -0.54574329
H        1.91658087      -1.33443544      -1.46645475
H        2.55768412      -1.59523962       0.15744115
H        1.35547155       0.24848196       1.66016725
H        1.01394554       2.10170283      -0.15865197
H       -0.02026081       1.66820094      -1.55008977
H       -0.94668291       2.15593939       1.30045051
H       -1.99358626       2.21321055      -0.15603734
H       -2.66304573      -0.78755432      -0.44091704
H       -2.02568131      -0.62308479       1.28394394
H       -0.49256508      -1.63288767      -1.32264810
H       -1.28644309      -2.06061313       0.39836800
19
Frame=10 idx=008673 GeodesicLength=0.8929325310236393 rxn_smarts="[C:1]([C:2]1([O:3][H:11])[C:4]([H:12])([H:13])[C:5]([H:14])([H:15])[C:6]([H:16])([H:17])[C:7]1([H:18])[H:19])([H:8])([H:9])[H:10]>>[C:1](/[C:2]([O:3][H:11])=[C:7](/[C:6]([H:16])([H:17])[H:19])[H:18])([H:8])([H:9])[H:10].[C:4](=[C:5]([H:14])[H:15])([H:12])[H:13]"
C        1.99006971      -0.89317811      -0.46689410
C        0.63899757      -0.58364162       0.09885284
O        0.66205440      -0.40304849       1.48112988
C        0.08679968       1.63034098      -0.47155377
C       -1.05704227       1.82503367       0.30721015
C       -1.81355567      -0.70420951       0.20508532
C       -0.52698383      -1.25911410      -0.31505298
H        2.59629822       0.01239727      -0.55789354
H        1.92708325      -1.35089200      -1.45363574
H        2.56342879      -1.56657769       0.17771084
H        1.31770331       0.27681636       1.64823140
H        1.02086933       2.11827081      -0.20706809
H       -0.05903344       1.67495141      -1.54981327
H       -0.87963299       2.17098767       1.32329140
H       -1.97339803       2.24935959      -0.08956681
H       -2.65089262      -0.79356591      -0.48438937
H       -2.06005009      -0.63779916       1.25752710
H       -0.47422570      -1.68510358      -1.31090219
H       -1.30848963      -2.08102758       0.40773093
19
Frame=11 idx=008673 GeodesicLength=0.979430096388321 rxn_smarts="[C:1]([C:2]1([O:3][H:11])[C:4]([H:12])([H:13])[C:5]([H:14])([H:15])[C:6]([H:16])([H:17])[C:7]1([H:18])[H:19])([H:8])([H:9])[H:10]>>[C:1](/[C:2]([O:3][H:11])=[C:7](/[C:6]([H:16])([H:17])[H:19])[H:18])([H:8])([H:9])[H:10].[C:4](=[C:5]([H:14])[H:15])([H:12])[H:13]"
C        1.98804314      -0.88623172      -0.46410112
C        0.63083523      -0.58162988       0.09097331
O        0.65078590      -0.40272039       1.47553166
C        0.08929645       1.62753198      -0.47513765
C       -1.03343680       1.83192969       0.33872614
C       -1.81796565      -0.72110757       0.18466389
C       -0.52377121      -1.28827263      -0.31219978
H        2.58449870       0.02394048      -0.57065455
H        1.93713477      -1.36625185      -1.44087121
H        2.56859629      -1.53712851       0.19662001
H        1.28077440       0.30252161       1.63648038
H        1.02525990       2.13449895      -0.25482806
H       -0.09785929       1.68198603      -1.54721171
H       -0.81242459       2.18667039       1.34382714
H       -1.95108809       2.28386075      -0.02365419
H       -2.63713271      -0.79999001      -0.52851230
H       -2.09479594      -0.65091739       1.22955394
H       -0.45519931      -1.73783087      -1.29680324
H       -1.33155117      -2.10085908       0.41759737
19
Frame=12 idx=008673 GeodesicLength=1.0656653467560833 rxn_smarts="[C:1]([C:2]1([O:3][H:11])[C:4]([H:12])([H:13])[C:5]([H:14])([H:15])[C:6]([H:16])([H:17])[C:7]1([H:18])[H:19])([H:8])([H:9])[H:10]>>[C:1](/[C:2]([O:3][H:11])=[C:7](/[C:6]([H:16])([H:17])[H:19])[H:18])([H:8])([H:9])[H:10].[C:4](=[C:5]([H:14])[H:15])([H:12])[H:13]"
C        1.98550428      -0.87888819      -0.46182940
C        0.62240099      -0.57973064       0.08319805
O        0.63974860      -0.40227844       1.47003313
C        0.09145155       1.62502598      -0.47806550
C       -1.00928480       1.83888492       0.37015225
C       -1.82218437      -0.73806310       0.16375310
C       -0.52026797      -1.31761745      -0.30799814
H        2.57204662       0.03556087      -0.58409283
H        1.94669108      -1.38062607      -1.42816496
H        2.57316515      -1.50693150       0.21420266
H        1.24488700       0.32580683       1.62492633
H        1.02713899       2.15045038      -0.30186295
H       -0.13670634       1.68928840      -1.54230870
H       -0.74508059       2.20276038       1.36217630
H       -1.92676541       2.31687768       0.04170946
H       -2.62167825      -0.80697485      -0.57334550
H       -2.12993628      -0.66248679       1.19985127
H       -0.43546018      -1.79101187      -1.28022069
H       -1.35567009      -2.12004654       0.42788613
19
Frame=13 idx=008673 GeodesicLength=1.1516519429063237 rxn_smarts="[C:1]([C:2]1([O:3][H:11])[C:4]([H:12])([H:13])[C:5]([H:14])([H:15])[C:6]([H:16])([H:17])[C:7]1([H:18])[H:19])([H:8])([H:9])[H:10]>>[C:1](/[C:2]([O:3][H:11])=[C:7](/[C:6]([H:16])([H:17])[H:19])[H:18])([H:8])([H:9])[H:10].[C:4](=[C:5]([H:14])[H:15])([H:12])[H:13]"
C        1.98240779      -0.87119511      -0.46007225
C        0.61367218      -0.57788800       0.07555756
O        0.62891522      -0.40163289       1.46466117
C        0.09330163       1.62287241      -0.48034674
C       -0.98462965       1.84595179       0.40147465
C       -1.82621255      -0.75509685       0.14227117
C       -0.51648984      -1.34703933      -0.30239307
H        2.55893339       0.04717675      -0.59823189
H        1.95567098      -1.39408152      -1.41552849
H        2.57705154      -1.47609108       0.23047211
H        1.21026570       0.34686691       1.61354396
H        1.02669901       2.16614390      -0.34810233
H       -0.17556339       1.69686752      -1.53517246
H       -0.67765589       2.21905166       1.37843065
H       -1.90063775       2.34850719       0.10666455
H       -2.60444856      -0.81474287      -0.61892594
H       -2.16547039      -0.67254400       1.16818686
H       -0.41496094      -1.84464049      -1.26099078
H       -1.38084848      -2.13848600       0.43850126
19
Frame=14 idx=008673 GeodesicLength=1.2374317568145825 rxn_smarts="[C:1]([C:2]1([O:3][H:11])[C:4]([H:12])([H:13])[C:5]([H:14])([H:15])[C:6]([H:16])([H:17])[C:7]1([H:18])[H:19])([H:8])([H:9])[H:10]>>[C:1](/[C:2]([O:3][H:11])=[C:7](/[C:6]([H:16])([H:17])[H:19])[H:18])([H:8])([H:9])[H:10].[C:4](=[C:5]([H:14])[H:15])([H:12])[H:13]"
C        1.97872996      -0.86320318      -0.45886286
C        0.60462730      -0.57614354       0.06806139
O        0.61829620      -0.40081469       1.45942526
C        0.09485253       1.62103063      -0.48197540
C       -0.95940265       1.85312270       0.43272973
C       -1.83004259      -0.77226914       0.12018100
C       -0.51246406      -1.37651259      -0.29531337
H        2.54509052       0.05874609      -0.61316238
H        1.96403218      -1.40671744      -1.40298602
H        2.58029935      -1.44458577       0.24541660
H        1.17700306       0.36593619       1.60238020
H        1.02377931       2.18168584      -0.39343703
H       -0.21430223       1.70469753      -1.52575434
H       -0.61026458       2.23528538       1.39269864
H       -1.87262394       2.37900749       0.17099770
H       -2.58536091      -0.82342184      -0.66523946
H       -2.20134815      -0.68115758       1.13446013
H       -0.39374940      -1.89851600      -1.23899143
H       -1.40715192      -2.15617007       0.44937165
19
Frame=15 idx=008673 GeodesicLength=1.323023615835913 rxn_smarts="[C:1]([C:2]1([O:3][H:11])[C:4]([H:12])([H:13])[C:5]([H:14])([H:15])[C:6]([H:16])([H:17])[C:7]1([H:18])[H:19])([H:8])([H:9])[H:10]>>[C:1](/[C:2]([O:3][H:11])=[C:7](/[C:6]([H:16])([H:17])[H:19])[H:18])([H:8])([H:9])[H:10].[C:4](=[C:5]([H:14])[H:15])([H:12])[H:13]"
C        1.97443513      -0.85495811      -0.45820808
C        0.59524173      -0.57448038       0.06073144
O        0.60788516      -0.39978385       1.45434702
C        0.09612904       1.61951234      -0.48296679
C       -0.93360854       1.86042039       0.46389056
C       -1.83366516      -0.78962573       0.09743485
C       -0.50822543      -1.40593957      -0.28670711
H        2.53048626       0.07019887      -0.62892935
H        1.97171113      -1.41861127      -1.39054834
H        2.58287871      -1.41246264       0.25904049
H        1.14520879       0.38324086       1.59143435
H        1.01843794       2.19712505      -0.43778231
H       -0.25284339       1.71276299      -1.51410559
H       -0.54299400       2.25120487       1.40509791
H       -1.84278440       2.40855622       0.23471811
H       -2.56435946      -0.83321604      -0.71224162
H       -2.23750074      -0.68840777       1.09850097
H       -0.37184217      -1.95249385      -1.21409518
H       -1.43459060      -2.17304237       0.46038866
19
Frame=16 idx=008673 GeodesicLength=1.4084474617486908 rxn_smarts="[C:1]([C:2]1([O:3][H:11])[C:4]([H:12])([H:13])[C:5]([H:14])([H:15])[C:6]([H:16])([H:17])[C:7]1([H:18])[H:19])([H:8])([H:9])[H:10]>>[C:1](/[C:2]([O:3][H:11])=[C:7](/[C:6]([H:16])([H:17])[H:19])[H:18])([H:8])([H:9])[H:10].[C:4](=[C:5]([H:14])[H:15])([H:12])[H:13]"
C        1.96948759      -0.84650733      -0.45811813
C        0.58549045      -0.57287613       0.05359103
O        0.59767886      -0.39849966       1.44944910
C        0.09715430       1.61833508      -0.48333441
C       -0.90726262       1.86786442       0.49492444
C       -1.83707009      -0.80721639       0.07399087
C       -0.50381311      -1.43520930      -0.27653310
H        2.51508294       0.08146605      -0.64558555
H        1.97864614      -1.42985172      -1.37822145
H        2.58476028      -1.37976283       0.27134085
H        1.11496330       0.39900248       1.58070758
H        1.01073387       2.21250391      -0.48104082
H       -0.29111746       1.72105987      -1.50027437
H       -0.47592795       2.26656671       1.41574011
H       -1.81114264       2.43734634       0.29783854
H       -2.54140338      -0.84436041      -0.75986523
H       -2.27384249      -0.69438998       1.06014132
H       -0.34925085      -2.00642562      -1.18617973
H       -1.46316712      -2.18904549       0.47142896
