16
Frame=0 idx=009737 GeodesicLength=0.0 rxn_smarts="[C:1]([C@@:2]1([O:3][H:11])[C:4]([H:12])([H:13])[N:5]2[C:6]([H:14])([H:15])[C@@:7]12[H:16])([H:8])([H:9])[H:10]>>[C:1]1([H:8])([H:10])[C:2](=[O:3])[C@@:7]2([H:16])[N:5]([C:4]1([H:12])[H:13])[C:6]2([H:14])[H:15].[H:9][H:11]"
C        1.06810057      -0.89629839      -0.12772142
C        0.58824965       0.42157907       0.17416376
O        1.50616191       1.31566372       0.27343489
C       -0.40102899       0.42276862      -1.26958612
N       -1.53831574       0.78439471      -0.42874417
C       -1.81780775      -0.31805723       0.48114678
C       -0.76993439       0.65352974       0.83471947
H        0.52058420      -1.80504965       0.10367203
H        2.42986984      -0.57672706       0.96955924
H        1.78715271      -0.96020953      -0.93454802
H        2.40450120       0.29453966       0.87917041
H       -0.57302526      -0.43042803      -1.92630427
H        0.01279890       1.26792354      -1.80969307
H       -1.56678027      -1.32807432       0.17405155
H       -2.77442515      -0.22848570       0.97988600
H       -0.87610147       1.38293078       1.62679287
16
Frame=1 idx=009737 GeodesicLength=0.09415233719864276 rxn_smarts="[C:1]([C@@:2]1([O:3][H:11])[C:4]([H:12])([H:13])[N:5]2[C:6]([H:14])([H:15])[C@@:7]12[H:16])([H:8])([H:9])[H:10]>>[C:1]1([H:8])([H:10])[C:2](=[O:3])[C@@:7]2([H:16])[N:5]([C:4]1([H:12])[H:13])[C:6]2([H:14])[H:15].[H:9][H:11]"
C        1.06515018      -0.89113811      -0.13477090
C        0.58558877       0.42440485       0.19204662
O        1.50322523       1.31697577       0.31429155
C       -0.39403627       0.41060940      -1.26721103
N       -1.53558218       0.78247385      -0.43351931
C       -1.82434283      -0.31450275       0.47950872
C       -0.77752555       0.65682602       0.83674816
H        0.52300781      -1.80146459       0.10246717
H        2.44972816      -0.59042089       0.94106448
H        1.78270191      -0.95406229      -0.94326293
H        2.43244235       0.30627422       0.87546811
H       -0.57948216      -0.43917699      -1.92488817
H        0.01820460       1.25193529      -1.81517334
H       -1.57182872      -1.32671035       0.18114504
H       -2.78453967      -0.22092036       0.97073283
H       -0.89271162       1.38889693       1.62535301
16
Frame=2 idx=009737 GeodesicLength=0.18827670519774709 rxn_smarts="[C:1]([C@@:2]1([O:3][H:11])[C:4]([H:12])([H:13])[N:5]2[C:6]([H:14])([H:15])[C@@:7]12[H:16])([H:8])([H:9])[H:10]>>[C:1]1([H:8])([H:10])[C:2](=[O:3])[C@@:7]2([H:16])[N:5]([C:4]1([H:12])[H:13])[C:6]2([H:14])[H:15].[H:9][H:11]"
C        1.06218580      -0.88615079      -0.14147299
C        0.58279768       0.42670724       0.20992547
O        1.50018323       1.31701064       0.35599675
C       -0.38706439       0.39850800      -1.26474358
N       -1.53269623       0.78066301      -0.43819568
C       -1.83093148      -0.31089005       0.47770781
C       -0.78504987       0.66000361       0.83874262
H        0.52544366      -1.79805091       0.10145050
H        2.46909075      -0.60326278       0.91206942
H        1.77815422      -0.94837382      -0.95168561
H        2.46080143       0.31930127       0.87084563
H       -0.58583161      -0.44762618      -1.92346616
H        0.02371647       1.23595944      -1.82040406
H       -1.57709895      -1.32523305       0.18800981
H       -2.79463192      -0.21324198       0.96137823
H       -0.90906878       1.39467634       1.62384185
16
Frame=3 idx=009737 GeodesicLength=0.28237210128870754 rxn_smarts="[C:1]([C@@:2]1([O:3][H:11])[C:4]([H:12])([H:13])[N:5]2[C:6]([H:14])([H:15])[C@@:7]12[H:16])([H:8])([H:9])[H:10]>>[C:1]1([H:8])([H:10])[C:2](=[O:3])[C@@:7]2([H:16])[N:5]([C:4]1([H:12])[H:13])[C:6]2([H:14])[H:15].[H:9][H:11]"
C        1.05920600      -0.88135848      -0.14782510
C        0.57987848       0.42847958       0.22781257
O        1.49704123       1.31566825       0.39864306
C       -0.38010963       0.38646432      -1.26218611
N       -1.52964810       0.77897067      -0.44277178
C       -1.83757567      -0.30721111       0.47573815
C       -0.79250332       0.66305752       0.84071000
H        0.52787356      -1.79482653       0.10061101
H        2.48791816      -0.61528112       0.88266413
H        1.77350930      -0.94316569      -0.95981240
H        2.48959629       0.33379624       0.86512298
H       -0.59205431      -0.45578690      -1.92203271
H        0.02934319       1.21999673      -1.82538930
H       -1.58260651      -1.32363797       0.19463086
H       -2.80470300      -0.20543338       0.95181457
H       -0.92516568       1.40026788       1.62227008
16
Frame=4 idx=009737 GeodesicLength=0.37643625427114336 rxn_smarts="[C:1]([C@@:2]1([O:3][H:11])[C:4]([H:12])([H:13])[N:5]2[C:6]([H:14])([H:15])[C@@:7]12[H:16])([H:8])([H:9])[H:10]>>[C:1]1([H:8])([H:10])[C:2](=[O:3])[C@@:7]2([H:16])[N:5]([C:4]1([H:12])[H:13])[C:6]2([H:14])[H:15].[H:9][H:11]"
C        1.05620791      -0.87678797      -0.15382103
C        0.57683271       0.42970953       0.24572503
O        1.49380562       1.31282293       0.44234196
C       -0.37316303       0.37447744      -1.25953810
N       -1.52642370       0.77740732      -0.44724615
C       -1.84427922      -0.30345544       0.47359125
C       -0.79988231       0.66598131       0.84265918
H        0.53027557      -1.79181355       0.09994085
H        2.50618246      -0.62650558       0.85293035
H        1.76876588      -0.93846507      -0.96763518
H        2.51882569       0.34997364       0.85809140
H       -0.59812995      -0.46366868      -1.92058239
H        0.03510395       1.20404641      -1.83012704
H       -1.58837064      -1.32191875       0.20099056
H       -2.81475668      -0.19747225       0.94202888
H       -0.94099426       1.40566872       1.62065044
16
Frame=5 idx=009737 GeodesicLength=0.4704640384505019 rxn_smarts="[C:1]([C@@:2]1([O:3][H:11])[C:4]([H:12])([H:13])[N:5]2[C:6]([H:14])([H:15])[C@@:7]12[H:16])([H:8])([H:9])[H:10]>>[C:1]1([H:8])([H:10])[C:2](=[O:3])[C@@:7]2([H:16])[N:5]([C:4]1([H:12])[H:13])[C:6]2([H:14])[H:15].[H:9][H:11]"
C        1.05318725      -0.87247259      -0.15945038
C        0.57366182       0.43037784       0.26368504
O        1.49048535       1.30831577       0.48722758
C       -0.36620970       0.36254520      -1.25679605
N       -1.52300330       0.77598615      -0.45161733
C       -1.85104748      -0.29960914       0.47125583
C       -0.80718269       0.66876729       0.84460091
H        0.53262342      -1.78903967       0.09943600
H        2.52387156      -0.63696407       0.82293559
H        1.76392100      -0.93430685      -0.97514151
H        2.54845655       0.36809435       0.84951404
H       -0.60403654      -0.47127912      -1.91910994
H        0.04103037       1.18810580      -1.83460851
H       -1.59441491      -1.32006651       0.20706858
H       -2.82479890      -0.18932930       0.93200234
H       -0.95654379       1.41087487       1.61899781
16
Frame=6 idx=009737 GeodesicLength=0.5644530071782017 rxn_smarts="[C:1]([C@@:2]1([O:3][H:11])[C:4]([H:12])([H:13])[N:5]2[C:6]([H:14])([H:15])[C@@:7]12[H:16])([H:8])([H:9])[H:10]>>[C:1]1([H:8])([H:10])[C:2](=[O:3])[C@@:7]2([H:16])[N:5]([C:4]1([H:12])[H:13])[C:6]2([H:14])[H:15].[H:9][H:11]"
C        1.05013895      -0.86845454      -0.16469970
C        0.57036842       0.43045655       0.28171865
O        1.48709495       1.30194555       0.53345729
C       -0.35922886       0.35066359      -1.25395393
N       -1.51936018       0.77472380      -0.45588348
C       -1.85788628      -0.29565375       0.46871827
C       -0.81439750       0.67140661       0.84654758
H        0.53488593      -1.78654032       0.09909444
H        2.54098811      -0.64668009       0.79272928
H        1.75897095      -0.93073640      -0.98231561
H        2.57840995       0.38847681       0.83913408
H       -0.60975143      -0.47862389      -1.91761081
H        0.04716684       1.17216978      -1.83881877
H       -1.60076761      -1.31806904       0.21284180
H       -2.83483606      -0.18096623       0.92171149
H       -0.97179618       1.41588157       1.61732940
16
Frame=7 idx=009737 GeodesicLength=0.6583969228427418 rxn_smarts="[C:1]([C@@:2]1([O:3][H:11])[C:4]([H:12])([H:13])[N:5]2[C:6]([H:14])([H:15])[C@@:7]12[H:16])([H:8])([H:9])[H:10]>>[C:1]1([H:8])([H:10])[C:2](=[O:3])[C@@:7]2([H:16])[N:5]([C:4]1([H:12])[H:13])[C:6]2([H:14])[H:15].[H:9][H:11]"
C        1.04705842      -0.86478602      -0.16955632
C        0.56695812       0.42990851       0.29985194
O        1.48365823       1.29345712       0.58120845
C       -0.35219447       0.33882490      -1.25100494
N       -1.51545897       0.77364056      -0.46004209
C       -1.86479906      -0.29156433       0.46596484
C       -0.82151312       0.67389102       0.84851211
H        0.53702829      -1.78435968       0.09891307
H        2.55755713      -0.65567034       0.76232805
H        1.75391124      -0.92780918      -0.98914332
H        2.60852811       0.41150287       0.82670769
H       -0.61525305      -0.48570878      -1.91608152
H        0.05356956       1.15622793      -1.84274009
H       -1.60746000      -1.31590930       0.21828752
H       -2.84487103      -0.17233223       0.91113202
H       -0.98671941       1.42068695       1.61566259
16
Frame=8 idx=009737 GeodesicLength=0.7522873850458924 rxn_smarts="[C:1]([C@@:2]1([O:3][H:11])[C:4]([H:12])([H:13])[N:5]2[C:6]([H:14])([H:15])[C@@:7]12[H:16])([H:8])([H:9])[H:10]>>[C:1]1([H:8])([H:10])[C:2](=[O:3])[C@@:7]2([H:16])[N:5]([C:4]1([H:12])[H:13])[C:6]2([H:14])[H:15].[H:9][H:11]"
C        1.04394456      -0.86152961      -0.17401962
C        0.56344371       0.42868837       0.31810073
O        1.48021451       1.28253465       0.63065900
C       -0.34507902       0.32701517      -1.24794699
N       -1.51125534       0.77275984      -0.46408921
C       -1.87178182      -0.28730794       0.46298777
C       -0.82850233       0.67621611       0.85050546
H        0.53901471      -1.78255204       0.09887591
H        2.57362022      -0.66394649       0.73170850
H        1.74874256      -0.92558792      -0.99562311
H        2.63854041       0.43762067       0.81207250
H       -0.62052802      -0.49254361      -1.91452202
H        0.06029879       1.14026155      -1.84636237
H       -1.61452252      -1.31356516       0.22339023
H       -2.85489582      -0.16336145       0.90025081
H       -1.00125460       1.42529784       1.61401241
16
Frame=9 idx=009737 GeodesicLength=0.846124579551421 rxn_smarts="[C:1]([C@@:2]1([O:3][H:11])[C:4]([H:12])([H:13])[N:5]2[C:6]([H:14])([H:15])[C@@:7]12[H:16])([H:8])([H:9])[H:10]>>[C:1]1([H:8])([H:10])[C:2](=[O:3])[C@@:7]2([H:16])[N:5]([C:4]1([H:12])[H:13])[C:6]2([H:14])[H:15].[H:9][H:11]"
C        1.04080237      -0.85874986      -0.17811168
C        0.55985079       0.42674627       0.33645798
O        1.47682197       1.26879882       0.68196221
C       -0.33786292       0.31520991      -1.24478594
N       -1.50669812       0.77210208      -0.46801998
C       -1.87881225      -0.28284159       0.45978919
C       -0.83531292       0.67838388       0.85252874
H        0.54081572      -1.78116995       0.09894277
H        2.58923315      -0.67153820       0.70079882
H        1.74347113      -0.92412763      -1.00176915
H        2.66802272       0.46733898       0.79522883
H       -0.62558369      -0.49914667      -1.91293164
H        0.06740001       1.12423464      -1.84969061
H       -1.62197431      -1.31100325       0.22814794
H       -2.86487596      -0.15397181       0.88907455
H       -1.01529767       1.42973437       1.61237796
16
Frame=10 idx=009737 GeodesicLength=0.9398852398759534 rxn_smarts="[C:1]([C@@:2]1([O:3][H:11])[C:4]([H:12])([H:13])[N:5]2[C:6]([H:14])([H:15])[C@@:7]12[H:16])([H:8])([H:9])[H:10]>>[C:1]1([H:8])([H:10])[C:2](=[O:3])[C@@:7]2([H:16])[N:5]([C:4]1([H:12])[H:13])[C:6]2([H:14])[H:15].[H:9][H:11]"
C        1.03764622      -0.85651983      -0.18190015
C        0.55622332       0.42403141       0.35487939
O        1.47355956       1.25181807       0.73519996
C       -0.33053816       0.30337089      -1.24154980
N       -1.50173033       0.77168841      -0.47182771
C       -1.88584929      -0.27811251       0.45639550
C       -0.84186276       0.68041061       0.85457531
H        0.54240925      -1.78028068       0.09903046
H        2.60446288      -0.67847882       0.66947815
H        1.73811860      -0.92347538      -1.00764763
H        2.69638240       0.50121162       0.77646700
H       -0.63045672      -0.50555517      -1.91132118
H        0.07489571       1.10809330      -1.85277200
H       -1.62982305      -1.30818754       0.23258752
H       -2.87474907      -0.14406149       0.87765687
H       -1.02868856       1.43404711       1.61074832
16
Frame=11 idx=009737 GeodesicLength=1.033552181351163 rxn_smarts="[C:1]([C@@:2]1([O:3][H:11])[C:4]([H:12])([H:13])[N:5]2[C:6]([H:14])([H:15])[C@@:7]12[H:16])([H:8])([H:9])[H:10]>>[C:1]1([H:8])([H:10])[C:2](=[O:3])[C@@:7]2([H:16])[N:5]([C:4]1([H:12])[H:13])[C:6]2([H:14])[H:15].[H:9][H:11]"
C        1.03450189      -0.85490359      -0.18550829
C        0.55262990       0.42050021       0.37326994
O        1.47052267       1.23113400       0.79033634
C       -0.32312174       0.29144407      -1.23829081
N       -1.49629645       0.77153025      -0.47550433
C       -1.89282131      -0.27305927       0.45286060
C       -0.84802965       0.68232640       0.85662058
H        0.54379110      -1.77994274       0.09899942
H        2.61934664      -0.68485948       0.63761773
H        1.73272732      -0.92364413      -1.01336856
H        2.72287748       0.53981926       0.75641102
H       -0.63522792      -0.51182697      -1.90970413
H        0.08275598       1.09175762      -1.85570283
H       -1.63804989      -1.30507229       0.23677026
H       -2.88440923      -0.13351543       0.86610475
H       -1.04119678       1.43831208       1.60908832
16
Frame=12 idx=009737 GeodesicLength=1.127121735532063 rxn_smarts="[C:1]([C@@:2]1([O:3][H:11])[C:4]([H:12])([H:13])[N:5]2[C:6]([H:14])([H:15])[C@@:7]12[H:16])([H:8])([H:9])[H:10]>>[C:1]1([H:8])([H:10])[C:2](=[O:3])[C@@:7]2([H:16])[N:5]([C:4]1([H:12])[H:13])[C:6]2([H:14])[H:15].[H:9][H:11]"
C        1.03141184      -0.85395591      -0.18913411
C        0.54917116       0.41612689       0.39147347
O        1.46782421       1.20631588       0.84715711
C       -0.31566600       0.27935823      -1.23509720
N       -1.49035709       0.77163039      -0.47903925
C       -1.89963477      -0.26761626       0.44927502
C       -0.85365327       0.68418190       0.85862460
H        0.54497891      -1.78021426       0.09863420
H        2.63387797      -0.69085563       0.60513721
H        1.72738048      -0.92460714      -1.01910899
H        2.74668176       0.58374532       0.73608858
H       -0.64003863      -0.51805023      -1.90810760
H        0.09087892       1.07512367      -1.85864947
H       -1.64661351      -1.30161339       0.24079822
H       -2.89371984      -0.12221107       0.85459793
H       -1.05252215       1.44264160       1.60735029
16
Frame=13 idx=009737 GeodesicLength=1.2205406677737276 rxn_smarts="[C:1]([C@@:2]1([O:3][H:11])[C:4]([H:12])([H:13])[N:5]2[C:6]([H:14])([H:15])[C@@:7]12[H:16])([H:8])([H:9])[H:10]>>[C:1]1([H:8])([H:10])[C:2](=[O:3])[C@@:7]2([H:16])[N:5]([C:4]1([H:12])[H:13])[C:6]2([H:14])[H:15].[H:9][H:11]"
C        1.02840029      -0.85372444      -0.19297636
C        0.54595663       0.41087812       0.40932672
O        1.46554659       1.17690109       0.90535161
C       -0.30821314       0.26704772      -1.23206090
N       -1.48383909       0.77198690      -0.48242580
C       -1.90615199      -0.26171242       0.44574202
C       -0.85854229       0.68601484       0.86054005
H        0.54598600      -1.78113953       0.09772683
H        2.64796272      -0.69672846       0.57204721
H        1.72213550      -0.92630703      -1.02503110
H        2.76685309       0.63364206       0.71650580
H       -0.64501138      -0.52429442      -1.90654506
H        0.09915903       1.05808250      -1.86179641
H       -1.65543546      -1.29774609       0.24479339
H       -2.90248382      -0.11002281       0.84333088
H       -1.06232268       1.44712198       1.60547112
16
Frame=14 idx=009737 GeodesicLength=1.3138294825042016 rxn_smarts="[C:1]([C@@:2]1([O:3][H:11])[C:4]([H:12])([H:13])[N:5]2[C:6]([H:14])([H:15])[C@@:7]12[H:16])([H:8])([H:9])[H:10]>>[C:1]1([H:8])([H:10])[C:2](=[O:3])[C@@:7]2([H:16])[N:5]([C:4]1([H:12])[H:13])[C:6]2([H:14])[H:15].[H:9][H:11]"
C        1.02552947      -0.85422394      -0.19737476
C        0.54315152       0.40477220       0.42655786
O        1.46381113       1.14266471       0.96425102
C       -0.30089694       0.25440869      -1.22934031
N       -1.47674631       0.77256936      -0.48565427
C       -1.91223448      -0.25528365       0.44242028
C       -0.86246308       0.68790940       0.86229167
H        0.54686988      -1.78274753       0.09592075
H        2.66150441      -0.70292944       0.53844581
H        1.71713790      -0.92861268      -1.03143189
H        2.78251344       0.69004874       0.69948595
H       -0.65041209      -0.53071165      -1.90505943
H        0.10732356       1.04047696      -1.86544835
H       -1.66442148      -1.29342860       0.24893551
H       -2.91049908      -0.09683153       0.83262465
H       -1.07016782       1.45191895       1.60337551
16
Frame=15 idx=009737 GeodesicLength=1.406968855330027 rxn_smarts="[C:1]([C@@:2]1([O:3][H:11])[C:4]([H:12])([H:13])[N:5]2[C:6]([H:14])([H:15])[C@@:7]12[H:16])([H:8])([H:9])[H:10]>>[C:1]1([H:8])([H:10])[C:2](=[O:3])[C@@:7]2([H:16])[N:5]([C:4]1([H:12])[H:13])[C:6]2([H:14])[H:15].[H:9][H:11]"
C        1.02282913      -0.85548125      -0.20262054
C        0.54092208       0.39779520       0.44293860
O        1.46271083       1.10341085       1.02312532
C       -0.29381470       0.24135276      -1.22706930
N       -1.46903629       0.77334991      -0.48871721
C       -1.91772284      -0.24826396       0.43945374
C       -0.86517110       0.68991495       0.86381211
H        0.54765557      -1.78506612       0.09291127
H        2.67433433      -0.71001866       0.50455334
H        1.71248363      -0.93140593      -1.03855039
H        2.79274345       0.75364594       0.68655727
H       -0.65645592      -0.53741235      -1.90366763
H        0.11514700       1.02215933      -1.86987258
H       -1.67346830      -1.28859916       0.25338914
H       -2.91753576      -0.08251585       0.82276179
H       -1.07562109       1.45713433       1.60099506
16
Frame=16 idx=009737 GeodesicLength=1.499980469400711 rxn_smarts="[C:1]([C@@:2]1([O:3][H:11])[C:4]([H:12])([H:13])[N:5]2[C:6]([H:14])([H:15])[C@@:7]12[H:16])([H:8])([H:9])[H:10]>>[C:1]1([H:8])([H:10])[C:2](=[O:3])[C@@:7]2([H:16])[N:5]([C:4]1([H:12])[H:13])[C:6]2([H:14])[H:15].[H:9][H:11]"
C        1.02033249      -0.85754588      -0.20902295
C        0.53945698       0.38992197       0.45823728
O        1.46236550       1.05912574       1.08104667
C       -0.28705824       0.22779576      -1.22539056
N       -1.46066571       0.77431275      -0.49160104
C       -1.92246373      -0.24058959       0.43700100
C       -0.86641285       0.69207742       0.86504227
H        0.54836124      -1.78815475       0.08838035
H        2.68627619      -0.71876649       0.47069046
H        1.70829112      -0.93458879      -1.04664684
H        2.79656493       0.82522472       0.67933661
H       -0.66336143      -0.54450614      -1.90238795
H        0.12240271       1.00299292      -1.87535419
H       -1.68247958      -1.28320964       0.25832699
H       -2.92337595      -0.06695058       0.81405371
H       -1.07823368       1.46286056       1.59828821
