13
Frame=0 idx=010211 GeodesicLength=0.0 rxn_smarts="[C:1]([C:2](=[O:3])[C@@:4]([O:5][H:12])([C:6](=[O:7])[H:13])[H:11])([H:8])([H:9])[H:10]>>[C:1]([C@@:2]1([C:6](=[O:7])[H:13])[O:3][C@:4]1([O:5][H:12])[H:11])([H:8])([H:9])[H:10]"
C       -1.33527223       0.00900069       0.12374008
C        0.02097995      -0.33013639      -0.54348376
O       -0.02792512      -0.95284860      -1.68467836
C        0.93181184       0.80813150      -0.59343893
O        0.82542688       1.91886980       0.03981423
C        0.79202844      -1.20676645       0.60938290
O        0.96621341      -0.90414138       1.74784479
H       -1.24497719       0.43472528       1.13025442
H       -1.89268363       0.67621163      -0.53536522
H       -1.89722406      -0.91941032       0.20717140
H        1.78761248       0.75028144      -1.26242768
H        0.03596837       1.90640066       0.60605594
H        1.03804083      -2.19031785       0.15513017
13
Frame=1 idx=010211 GeodesicLength=0.09214209974036248 rxn_smarts="[C:1]([C:2](=[O:3])[C@@:4]([O:5][H:12])([C:6](=[O:7])[H:13])[H:11])([H:8])([H:9])[H:10]>>[C:1]([C@@:2]1([C:6](=[O:7])[H:13])[O:3][C@:4]1([O:5][H:12])[H:11])([H:8])([H:9])[H:10]"
C       -1.35648163       0.00864919       0.12429426
C       -0.00508735      -0.33609931      -0.53677464
O       -0.02615226      -0.92778395      -1.69373593
C        0.92973333       0.78301809      -0.59399589
O        0.81963351       1.91305793       0.01437637
C        0.81220965      -1.19366191       0.61232485
O        0.97483634      -0.90236768       1.75602412
H       -1.26530069       0.42413295       1.13452268
H       -1.89976830       0.69651961      -0.52527340
H       -1.92665613      -0.91596655       0.19206463
H        1.79909108       0.71220859      -1.24431863
H        0.05562914       1.90196763       0.61343231
H        1.08831330      -2.16367459       0.14705928
13
Frame=2 idx=010211 GeodesicLength=0.18422463744288597 rxn_smarts="[C:1]([C:2](=[O:3])[C@@:4]([O:5][H:12])([C:6](=[O:7])[H:13])[H:11])([H:8])([H:9])[H:10]>>[C:1]([C@@:2]1([C:6](=[O:7])[H:13])[O:3][C@:4]1([O:5][H:12])[H:11])([H:8])([H:9])[H:10]"
C       -1.37709883       0.00808710       0.12431838
C       -0.02993977      -0.34283373      -0.52986727
O       -0.02444740      -0.90294888      -1.70152129
C        0.92733189       0.75800815      -0.59433249
O        0.81398838       1.90609081      -0.00972550
C        0.83261558      -1.18046751       0.61554596
O        0.98447141      -0.90063030       1.76417406
H       -1.28563646       0.41247828       1.13855068
H       -1.90551620       0.71674238      -0.51508043
H       -1.95643724      -0.91184009       0.17557165
H        1.80843271       0.67633272      -1.22768757
H        0.07579303       1.89784418       0.61990876
H        1.13644290      -2.13686312       0.14014505
13
Frame=3 idx=010211 GeodesicLength=0.27624412745363336 rxn_smarts="[C:1]([C:2](=[O:3])[C@@:4]([O:5][H:12])([C:6](=[O:7])[H:13])[H:11])([H:8])([H:9])[H:10]>>[C:1]([C@@:2]1([C:6](=[O:7])[H:13])[O:3][C@:4]1([O:5][H:12])[H:11])([H:8])([H:9])[H:10]"
C       -1.39715115       0.00731344       0.12384514
C       -0.05366132      -0.35025073      -0.52278732
O       -0.02293068      -0.87841740      -1.70804571
C        0.92463036       0.73317954      -0.59446571
O        0.80864454       1.89811178      -0.03237952
C        0.85321785      -1.16716884       0.61900909
O        0.99517659      -0.89882956       1.77224764
H       -1.30601690       0.39969840       1.14236293
H       -1.90999371       0.73684226      -0.50466892
H       -1.98649707      -0.90700653       0.15769351
H        1.81594424       0.64245442      -1.21246273
H        0.09617056       1.89412637       0.62535325
H        1.18246669      -2.11005313       0.13429835
13
Frame=4 idx=010211 GeodesicLength=0.36816128920764696 rxn_smarts="[C:1]([C:2](=[O:3])[C@@:4]([O:5][H:12])([C:6](=[O:7])[H:13])[H:11])([H:8])([H:9])[H:10]>>[C:1]([C@@:2]1([C:6](=[O:7])[H:13])[O:3][C@:4]1([O:5][H:12])[H:11])([H:8])([H:9])[H:10]"
C       -1.41666338       0.00632122       0.12287366
C       -0.07632891      -0.35826309      -0.51555901
O       -0.02165171      -0.85430481      -1.71329462
C        0.92166344       0.70859655      -0.59440833
O        0.80361169       1.88930347      -0.05364442
C        0.87398755      -1.15369494       0.62268045
O        1.00694593      -0.89679383       1.78019180
H       -1.32649476       0.38572964       1.14592774
H       -1.91322719       0.75675981      -0.49396785
H       -2.01675097      -0.90144863       0.13840048
H        1.82180425       0.61047683      -1.19868504
H        0.11676882       1.89071666       0.62996772
H        1.22633525      -2.08339886       0.12951743
13
Frame=5 idx=010211 GeodesicLength=0.46001433165040534 rxn_smarts="[C:1]([C:2](=[O:3])[C@@:4]([O:5][H:12])([C:6](=[O:7])[H:13])[H:11])([H:8])([H:9])[H:10]>>[C:1]([C@@:2]1([C:6](=[O:7])[H:13])[O:3][C@:4]1([O:5][H:12])[H:11])([H:8])([H:9])[H:10]"
C       -1.43568511       0.00513322       0.12143532
C       -0.09802304      -0.36678548      -0.50820799
O       -0.02067671      -0.83066823      -1.71734219
C        0.91847496       0.68429358      -0.59416420
O        0.79890645       1.87984930      -0.07358975
C        0.89490490      -1.14005888       0.62654204
O        1.01979856      -0.89447052       1.78802265
H       -1.34712849       0.37056213       1.14927128
H       -1.91533163       0.77647759      -0.48287973
H       -2.04712509      -0.89512580       0.11770770
H        1.82627111       0.58017313      -1.18625202
H        0.13743920       1.88766476       0.63376481
H        1.26817489      -2.05704482       0.12569208
13
Frame=6 idx=010211 GeodesicLength=0.5517955764532104 rxn_smarts="[C:1]([C:2](=[O:3])[C@@:4]([O:5][H:12])([C:6](=[O:7])[H:13])[H:11])([H:8])([H:9])[H:10]>>[C:1]([C@@:2]1([C:6](=[O:7])[H:13])[O:3][C@:4]1([O:5][H:12])[H:11])([H:8])([H:9])[H:10]"
C       -1.45425720       0.00375780       0.11954928
C       -0.11883372      -0.37574113      -0.50074422
O       -0.02004637      -0.80757162      -1.72021134
C        0.91509652       0.66028721      -0.59373579
O        0.79448640       1.86989606      -0.09236185
C        0.91591180      -1.12623601       0.63057253
O        1.03368385      -0.89176498       1.79572018
H       -1.36797677       0.35415946       1.15237313
H       -1.91636602       0.79596184      -0.47130276
H       -2.07755036      -0.88799661       0.09561093
H        1.82951956       0.55136921      -1.17508360
H        0.15822035       1.88491357       0.63687074
H        1.30811197      -2.03103480       0.12274278
13
Frame=7 idx=010211 GeodesicLength=0.6435378201076036 rxn_smarts="[C:1]([C:2](=[O:3])[C@@:4]([O:5][H:12])([C:6](=[O:7])[H:13])[H:11])([H:8])([H:9])[H:10]>>[C:1]([C@@:2]1([C:6](=[O:7])[H:13])[O:3][C@:4]1([O:5][H:12])[H:11])([H:8])([H:9])[H:10]"
C       -1.47243653       0.00221969       0.11723718
C       -0.13884833      -0.38506620      -0.49318649
O       -0.01977556      -0.78508084      -1.72197342
C        0.91155332       0.63657945      -0.59313392
O        0.79027624       1.85957881      -0.11011252
C        0.93697234      -1.11223303       0.63476702
O        1.04855221      -0.88862564       1.80331307
H       -1.38911669       0.33650654       1.15523350
H       -1.91641424       0.81521134      -0.45914362
H       -2.10796707      -0.88000520       0.07211252
H        1.83170649       0.52388931      -1.16511326
H        0.17916301       1.88244136       0.63941113
H        1.34633481      -2.00541561       0.12058882
13
Frame=8 idx=010211 GeodesicLength=0.7351556956776348 rxn_smarts="[C:1]([C:2](=[O:3])[C@@:4]([O:5][H:12])([C:6](=[O:7])[H:13])[H:11])([H:8])([H:9])[H:10]>>[C:1]([C@@:2]1([C:6](=[O:7])[H:13])[O:3][C@:4]1([O:5][H:12])[H:11])([H:8])([H:9])[H:10]"
C       -1.49021965       0.00049501       0.11452613
C       -0.15814263      -0.39467126      -0.48552305
O       -0.01990006      -0.76318379      -1.72260000
C        0.90788163       0.61318357      -0.59232422
O        0.78632023       1.84896269      -0.12691677
C        0.95800097      -1.09799659       0.63906717
O        1.06432545      -0.88494572       1.81069940
H       -1.41054542       0.31756973       1.15777183
H       -1.91551336       0.83409510      -0.44627634
H       -2.13823896      -0.87115217       0.04726330
H        1.83295623       0.49760251      -1.15617707
H        0.20027322       1.88021360       0.64134532
H        1.38280234      -1.98017269       0.11914429
13
Frame=9 idx=010211 GeodesicLength=0.8267070451743823 rxn_smarts="[C:1]([C:2](=[O:3])[C@@:4]([O:5][H:12])([C:6](=[O:7])[H:13])[H:11])([H:8])([H:9])[H:10]>>[C:1]([C@@:2]1([C:6](=[O:7])[H:13])[O:3][C@:4]1([O:5][H:12])[H:11])([H:8])([H:9])[H:10]"
C       -1.50767386      -0.00137270       0.11144580
C       -0.17677607      -0.40449243      -0.47779526
O       -0.02037323      -0.74191054      -1.72224049
C        0.90411589       0.59010142      -0.59132539
O        0.78253276       1.83817317      -0.14290094
C        0.97902004      -1.08357433       0.64348124
O        1.08096646      -0.88075439       1.81797168
H       -1.43234938       0.29739299       1.16001124
H       -1.91380882       0.85262115      -0.43264278
H       -2.16827687      -0.86139702       0.02113654
H        1.83341446       0.47237260      -1.14824606
H        0.22154128       1.87828080       0.64275573
H        1.41766734      -1.95544074       0.11834869
13
Frame=10 idx=010211 GeodesicLength=0.9181799286729307 rxn_smarts="[C:1]([C:2](=[O:3])[C@@:4]([O:5][H:12])([C:6](=[O:7])[H:13])[H:11])([H:8])([H:9])[H:10]>>[C:1]([C@@:2]1([C:6](=[O:7])[H:13])[O:3][C@:4]1([O:5][H:12])[H:11])([H:8])([H:9])[H:10]"
C       -1.52482440      -0.00338812       0.10801770
C       -0.19484141      -0.41448214      -0.46999369
O       -0.02121393      -0.72129169      -1.72089305
C        0.90025800       0.56730954      -0.59012803
O        0.77890937       1.82723333      -0.15815705
C        0.99994992      -1.06893515       0.64798418
O        1.09839021      -0.87595675       1.82507939
H       -1.45457268       0.27590881       1.16189265
H       -1.91130613       0.87074015      -0.41810889
H       -2.19802218      -0.85068467      -0.00628060
H        1.83313894       0.44806610      -1.14121294
H        0.24307074       1.87660343       0.64366677
H        1.45106356      -1.93112285       0.11813355
13
Frame=11 idx=010211 GeodesicLength=1.0095762540871152 rxn_smarts="[C:1]([C:2](=[O:3])[C@@:4]([O:5][H:12])([C:6](=[O:7])[H:13])[H:11])([H:8])([H:9])[H:10]>>[C:1]([C@@:2]1([C:6](=[O:7])[H:13])[O:3][C@:4]1([O:5][H:12])[H:11])([H:8])([H:9])[H:10]"
C       -1.54171485      -0.00551282       0.10427613
C       -0.21237558      -0.42457497      -0.46215793
O       -0.02236658      -0.70130436      -1.71870460
C        0.89634462       0.54481261      -0.58874154
O        0.77540979       1.81624680      -0.17277212
C        1.02081890      -1.05413558       0.65257598
O        1.11655757      -0.87060931       1.83210009
H       -1.47726613       0.25319180       1.16341783
H       -1.90817236       0.88842661      -0.40261293
H       -2.22734884      -0.83899764      -0.03486841
H        1.83226291       0.42456452      -1.13501352
H        0.26477705       1.87525621       0.64406351
H        1.48307350      -1.90736387       0.11843750
13
Frame=12 idx=010211 GeodesicLength=1.100877339209833 rxn_smarts="[C:1]([C:2](=[O:3])[C@@:4]([O:5][H:12])([C:6](=[O:7])[H:13])[H:11])([H:8])([H:9])[H:10]>>[C:1]([C@@:2]1([C:6](=[O:7])[H:13])[O:3][C@:4]1([O:5][H:12])[H:11])([H:8])([H:9])[H:10]"
C       -1.55833892      -0.00778647       0.10023548
C       -0.22948067      -0.43472901      -0.45424849
O       -0.02387180      -0.68194775      -1.71556502
C        0.89236669       0.52257451      -0.58712062
O        0.77207300       1.80514971      -0.18682556
C        1.04150348      -1.03907365       0.65719450
O        1.13532656      -0.86456726       1.83887443
H       -1.50044039       0.22911707       1.16444483
H       -1.90431681       0.90554911      -0.38599138
H       -2.25620158      -0.82628325      -0.06462765
H        1.83078664       0.40178536      -1.12948600
H        0.28686202       1.87413597       0.64391409
H        1.51373178      -1.88392433       0.11920140
13
Frame=13 idx=010211 GeodesicLength=1.1921111036230674 rxn_smarts="[C:1]([C:2](=[O:3])[C@@:4]([O:5][H:12])([C:6](=[O:7])[H:13])[H:11])([H:8])([H:9])[H:10]>>[C:1]([C@@:2]1([C:6](=[O:7])[H:13])[O:3][C@:4]1([O:5][H:12])[H:11])([H:8])([H:9])[H:10]"
C       -1.57476075      -0.01015104       0.09592901
C       -0.24618521      -0.44490789      -0.44632056
O       -0.02566041      -0.66322844      -1.71168101
C        0.88834305       0.50058788      -0.58531158
O        0.76883656       1.79404618      -0.20038264
C        1.06207280      -1.02383903       0.66187588
O        1.15471394      -0.85788242       1.84555102
H       -1.52418269       0.20375187       1.16501344
H       -1.89993205       0.92214846      -0.36817105
H       -2.28450292      -0.81247765      -0.09550422
H        1.82881988       0.37960096      -1.12463458
H        0.30922466       1.87332945       0.64324211
H        1.54321314      -1.86097834       0.12039418
13
Frame=14 idx=010211 GeodesicLength=1.2832769819067713 rxn_smarts="[C:1]([C:2](=[O:3])[C@@:4]([O:5][H:12])([C:6](=[O:7])[H:13])[H:11])([H:8])([H:9])[H:10]>>[C:1]([C@@:2]1([C:6](=[O:7])[H:13])[O:3][C@:4]1([O:5][H:12])[H:11])([H:8])([H:9])[H:10]"
C       -1.59099692      -0.01260798       0.09137709
C       -0.26255244      -0.45507661      -0.43837029
O       -0.02772100      -0.64512617      -1.70706045
C        0.88427759       0.47883039      -0.58329663
O        0.76569188       1.78293151      -0.21352744
C        1.08249219      -1.00840023       0.66659565
O        1.17462436      -0.85052294       1.85209258
H       -1.54852783       0.17704812       1.16503547
H       -1.89503116       0.93814325      -0.34902764
H       -2.31218103      -0.79752810      -0.12744290
H        1.82639903       0.35794244      -1.12036194
H        0.33195447       1.87281863       0.64200791
H        1.57157085      -1.83845230       0.12197859
13
Frame=15 idx=010211 GeodesicLength=1.3743801204597768 rxn_smarts="[C:1]([C:2](=[O:3])[C@@:4]([O:5][H:12])([C:6](=[O:7])[H:13])[H:11])([H:8])([H:9])[H:10]>>[C:1]([C@@:2]1([C:6](=[O:7])[H:13])[O:3][C@:4]1([O:5][H:12])[H:11])([H:8])([H:9])[H:10]"
C       -1.60707822      -0.01513239       0.08660189
C       -0.27862872      -0.46521622      -0.43041448
O       -0.03001741      -0.62763872      -1.70178384
C        0.88016870       0.45727908      -0.58108168
O        0.76259442       1.77183473      -0.22633489
C        1.10277179      -0.99277303       0.67135625
O        1.19500530      -0.84249481       1.85853699
H       -1.57354088       0.14898476       1.16446349
H       -1.88966710       0.95350692      -0.32844525
H       -2.33916579      -0.78136206      -0.16039512
H        1.82356565       0.33672864      -1.11662137
H        0.35507624       1.87264268       0.64019041
H        1.59891600      -1.81635958       0.12392759
13
Frame=16 idx=010211 GeodesicLength=1.4654094378817684 rxn_smarts="[C:1]([C:2](=[O:3])[C@@:4]([O:5][H:12])([C:6](=[O:7])[H:13])[H:11])([H:8])([H:9])[H:10]>>[C:1]([C@@:2]1([C:6](=[O:7])[H:13])[O:3][C@:4]1([O:5][H:12])[H:11])([H:8])([H:9])[H:10]"
C       -1.62298126      -0.01774798       0.08161906
C       -0.29446988      -0.47528885      -0.42243903
O       -0.03255719      -0.61072443      -1.69579285
C        0.87601406       0.43591811      -0.57862739
O        0.75959404       1.76070890      -0.23882938
C        1.12285080      -0.97688268       0.67610089
O        1.21575521      -0.83369942       1.86476213
H       -1.59919382       0.11953070       1.16313717
H       -1.88382679       0.96806888      -0.30629605
H       -2.36536385      -0.76392719      -0.19428525
H        1.82032360       0.31592042      -1.11327256
H        0.37867414       1.87271608       0.63771114
H        1.62518095      -1.79459254       0.12621211
