12
Frame=0 idx=001945 GeodesicLength=0.0 rxn_smarts="[C:1]([n:2]1[c:3]([H:10])[c:4]([H:11])[n:5][c:6]1[H:12])([H:7])([H:8])[H:9]>>[C:1]([N+:2]1([H:10])[C-:3]=[C:4]([H:11])[N:5]=[C:6]1[H:12])([H:7])([H:8])[H:9]"
C       -1.61640526      -0.29796019      -0.26944629
N       -0.22444243      -0.09229835       0.11357064
C        0.86561479      -1.10501234      -0.23742609
C        1.94152355      -0.25740475      -0.09787083
N        1.65559586       1.07144525       0.14321782
C        0.37530583       1.15096370       0.26085341
H       -1.74834278      -0.02002146      -1.31331895
H       -1.84573713      -1.35511831      -0.15457267
H       -2.27170725       0.30075563       0.36283733
H        0.09300805      -0.87321686       0.90379139
H        2.97336343      -0.56293064      -0.19214124
H       -0.19777662       2.04079828       0.48050543
12
Frame=1 idx=001945 GeodesicLength=0.04996370351773341 rxn_smarts="[C:1]([n:2]1[c:3]([H:10])[c:4]([H:11])[n:5][c:6]1[H:12])([H:7])([H:8])[H:9]>>[C:1]([N+:2]1([H:10])[C-:3]=[C:4]([H:11])[N:5]=[C:6]1[H:12])([H:7])([H:8])[H:9]"
C       -1.61365778      -0.29644584      -0.27201337
N       -0.22441028      -0.09562415       0.12324115
C        0.86388659      -1.09917435      -0.23494956
C        1.94079291      -0.25309151      -0.10756450
N        1.65263031       1.07612075       0.13529773
C        0.37409472       1.14983168       0.27070296
H       -1.73216106      -0.03738837      -1.32238306
H       -1.85614825      -1.34863353      -0.13949708
H       -2.27109492       0.31956043       0.34110579
H        0.09299886      -0.89507794       0.91338068
H        2.97258491      -0.55810834      -0.20299675
H       -0.19951601       2.03803117       0.49567602
12
Frame=2 idx=001945 GeodesicLength=0.0999210293639046 rxn_smarts="[C:1]([n:2]1[c:3]([H:10])[c:4]([H:11])[n:5][c:6]1[H:12])([H:7])([H:8])[H:9]>>[C:1]([N+:2]1([H:10])[C-:3]=[C:4]([H:11])[N:5]=[C:6]1[H:12])([H:7])([H:8])[H:9]"
C       -1.61085897      -0.29489984      -0.27447059
N       -0.22436152      -0.09892883       0.13277339
C        0.86221367      -1.09337123      -0.23225227
C        1.93992331      -0.24868344      -0.11736114
N        1.64943527       1.08090945       0.12708902
C        0.37292962       1.14872759       0.28035182
H       -1.71624904      -0.05471152      -1.33075438
H       -1.86666744      -1.34165777      -0.12475237
H       -2.26985950       0.33800489       0.31941145
H        0.09297650      -0.91741401       0.92250220
H        2.97173269      -0.55322894      -0.21319226
H       -0.20121459       2.03525365       0.51065512
12
Frame=3 idx=001945 GeodesicLength=0.1498513312971749 rxn_smarts="[C:1]([n:2]1[c:3]([H:10])[c:4]([H:11])[n:5][c:6]1[H:12])([H:7])([H:8])[H:9]>>[C:1]([N+:2]1([H:10])[C-:3]=[C:4]([H:11])[N:5]=[C:6]1[H:12])([H:7])([H:8])[H:9]"
C       -1.60801574      -0.29331801      -0.27678521
N       -0.22428624      -0.10220612       0.14215455
C        0.86060562      -1.08758785      -0.22941273
C        1.93891665      -0.24417826      -0.12731955
N        1.64601143       1.08579877       0.11862433
C        0.37181586       1.14765063       0.28980425
H       -1.70069127      -0.07187785      -1.33839483
H       -1.87724095      -1.33421526      -0.11038259
H       -2.26800452       0.35601445       0.29790495
H        0.09296450      -0.94026159       0.93108470
H        2.97080920      -0.54832520      -0.22253608
H       -0.20288453       2.03250629       0.52525822
12
Frame=4 idx=001945 GeodesicLength=0.19976814222603745 rxn_smarts="[C:1]([n:2]1[c:3]([H:10])[c:4]([H:11])[n:5][c:6]1[H:12])([H:7])([H:8])[H:9]>>[C:1]([N+:2]1([H:10])[C-:3]=[C:4]([H:11])[N:5]=[C:6]1[H:12])([H:7])([H:8])[H:9]"
C       -1.60514383      -0.29169819      -0.27890512
N       -0.22417852      -0.10546169       0.15138359
C        0.85904002      -1.08177297      -0.22650033
C        1.93776595      -0.23955557      -0.13747117
N        1.64238473       1.09076759       0.11002460
C        0.37077736       1.14658319       0.29908594
H       -1.68555716      -0.08871660      -1.34523907
H       -1.88782676      -1.32637307      -0.09648423
H       -2.26554221       0.37349232       0.27680970
H        0.09297765      -0.96368676       0.93904289
H        2.96983378      -0.54341896      -0.23087438
H       -0.20453100       2.02984071       0.53912758
12
Frame=5 idx=001945 GeodesicLength=0.2497037927620776 rxn_smarts="[C:1]([n:2]1[c:3]([H:10])[c:4]([H:11])[n:5][c:6]1[H:12])([H:7])([H:8])[H:9]>>[C:1]([N+:2]1([H:10])[C-:3]=[C:4]([H:11])[N:5]=[C:6]1[H:12])([H:7])([H:8])[H:9]"
C       -1.60222118      -0.29004507      -0.28090868
N       -0.22404955      -0.10868411       0.16052606
C        0.85754983      -1.07601294      -0.22332042
C        1.93648863      -0.23487535      -0.14763188
N        1.63854929       1.09582700       0.10134249
C        0.36979308       1.14557073       0.30821448
H       -1.67070155      -0.10545289      -1.35147608
H       -1.89845061      -1.31811185      -0.08291335
H       -2.26252092       0.39061523       0.25584808
H        0.09294199      -0.98766324       0.94650107
H        2.96878352      -0.53843674      -0.23877039
H       -0.20616251       2.02726922       0.55258863
12
Frame=6 idx=001945 GeodesicLength=0.29960569920919083 rxn_smarts="[C:1]([n:2]1[c:3]([H:10])[c:4]([H:11])[n:5][c:6]1[H:12])([H:7])([H:8])[H:9]>>[C:1]([N+:2]1([H:10])[C-:3]=[C:4]([H:11])[N:5]=[C:6]1[H:12])([H:7])([H:8])[H:9]"
C       -1.59923490      -0.28835634      -0.28283720
N       -0.22390809      -0.11185753       0.16959611
C        0.85612916      -1.07027971      -0.21975009
C        1.93507435      -0.23014478      -0.15772415
N        1.63450155       1.10092604       0.09255036
C        0.36886147       1.14459487       0.31714394
H       -1.65602821      -0.12229200      -1.35715957
H       -1.90915017      -1.30934774      -0.06953407
H       -2.25894827       0.40748922       0.23477261
H        0.09280284      -1.01213619       0.95347625
H        2.96763733      -0.53327089      -0.24648072
H       -0.20773707       2.02467506       0.56594653
12
Frame=7 idx=001945 GeodesicLength=0.34943577281215177 rxn_smarts="[C:1]([n:2]1[c:3]([H:10])[c:4]([H:11])[n:5][c:6]1[H:12])([H:7])([H:8])[H:9]>>[C:1]([N+:2]1([H:10])[C-:3]=[C:4]([H:11])[N:5]=[C:6]1[H:12])([H:7])([H:8])[H:9]"
C       -1.59619406      -0.28663441      -0.28465654
N       -0.22374821      -0.11497880       0.17859736
C        0.85477937      -1.06457107      -0.21585648
C        1.93352666      -0.22536596      -0.16778355
N        1.63025697       1.10607188       0.08370510
C        0.36798788       1.14367455       0.32588300
H       -1.64160384      -0.13912026      -1.36225714
H       -1.91988044      -1.30012943      -0.05640533
H       -2.25483263       0.42403855       0.21374565
H        0.09258143      -1.03714232       0.95989092
H        2.96639812      -0.52797035      -0.25385640
H       -0.20927125       2.02212762       0.57899342
12
Frame=8 idx=001945 GeodesicLength=0.3992813088411929 rxn_smarts="[C:1]([n:2]1[c:3]([H:10])[c:4]([H:11])[n:5][c:6]1[H:12])([H:7])([H:8])[H:9]>>[C:1]([N+:2]1([H:10])[C-:3]=[C:4]([H:11])[N:5]=[C:6]1[H:12])([H:7])([H:8])[H:9]"
C       -1.59309837      -0.28487905      -0.28635894
N       -0.22356979      -0.11804404       0.18754815
C        0.85350564      -1.05889025      -0.21162972
C        1.93184694      -0.22054161      -0.17780386
N        1.62582120       1.11127892       0.07483038
C        0.36717191       1.14282567       0.33444923
H       -1.62743042      -0.15588996      -1.36678699
H       -1.93061505      -1.29049761      -0.04355101
H       -2.25019172       0.44025228       0.19282938
H        0.09226881      -1.06273437       0.96574033
H        2.96507076      -0.52256012      -0.26091151
H       -0.21077993       2.01968014       0.59164456
12
Frame=9 idx=001945 GeodesicLength=0.44911503225495636 rxn_smarts="[C:1]([n:2]1[c:3]([H:10])[c:4]([H:11])[n:5][c:6]1[H:12])([H:7])([H:8])[H:9]>>[C:1]([N+:2]1([H:10])[C-:3]=[C:4]([H:11])[N:5]=[C:6]1[H:12])([H:7])([H:8])[H:9]"
C       -1.58994640      -0.28308935      -0.28794035
N       -0.22337351      -0.12104463       0.19646634
C        0.85230955      -1.05322665      -0.20704940
C        1.93003483      -0.21567813      -0.18776540
N        1.62120464       1.11652993       0.06596383
C        0.36641394       1.14205132       0.34284626
H       -1.61349867      -0.17261280      -1.37075251
H       -1.94134180      -1.28044877      -0.03095388
H       -2.24503948       0.45613159       0.17201957
H        0.09185208      -1.08892484       0.97098548
H        2.96365184      -0.51702684      -0.26769276
H       -0.21226704       2.01733917       0.60387281
12
Frame=10 idx=001945 GeodesicLength=0.49893326683648676 rxn_smarts="[C:1]([n:2]1[c:3]([H:10])[c:4]([H:11])[n:5][c:6]1[H:12])([H:7])([H:8])[H:9]>>[C:1]([N+:2]1([H:10])[C-:3]=[C:4]([H:11])[N:5]=[C:6]1[H:12])([H:7])([H:8])[H:9]"
C       -1.58673492      -0.28126583      -0.28939848
N       -0.22316099      -0.12397233       0.20537451
C        0.85119363      -1.04757614      -0.20208549
C        1.92809026      -0.21078361      -0.19764233
N        1.61641883       1.12181585       0.05714286
C        0.36571259       1.14136075       0.35108148
H       -1.59979271      -0.18929510      -1.37416323
H       -1.95204707      -1.26998893      -0.01860497
H       -2.23938946       0.47167783       0.15131487
H        0.09131552      -1.11573176       0.97559797
H        2.96213427      -0.51136448      -0.27426615
H       -0.21373994       2.01512375       0.61564896
12
Frame=11 idx=001945 GeodesicLength=0.5487335869514528 rxn_smarts="[C:1]([n:2]1[c:3]([H:10])[c:4]([H:11])[n:5][c:6]1[H:12])([H:7])([H:8])[H:9]>>[C:1]([N+:2]1([H:10])[C-:3]=[C:4]([H:11])[N:5]=[C:6]1[H:12])([H:7])([H:8])[H:9]"
C       -1.58346002      -0.27940978      -0.29073285
N       -0.22293443      -0.12681796       0.21429633
C        0.85016043      -1.04193798      -0.19670510
C        1.92601176      -0.20586706      -0.20741221
N        1.61147433       1.12713007       0.04839945
C        0.36506491       1.14076808       0.35915990
H       -1.58629324      -0.20595454      -1.37703276
H       -1.96271883      -1.25912325      -0.00648799
H       -2.23325453       0.48689859       0.13070311
H        0.09064286      -1.14317237       0.97954730
H        2.96051232      -0.50556848      -0.28069958
H       -0.21520556       2.01305467       0.62696440
12
Frame=12 idx=001945 GeodesicLength=0.598528160174964 rxn_smarts="[C:1]([n:2]1[c:3]([H:10])[c:4]([H:11])[n:5][c:6]1[H:12])([H:7])([H:8])[H:9]>>[C:1]([N+:2]1([H:10])[C-:3]=[C:4]([H:11])[N:5]=[C:6]1[H:12])([H:7])([H:8])[H:9]"
C       -1.58011821      -0.27752275      -0.29193953
N       -0.22269641      -0.12957304       0.22325657
C        0.84921340      -1.03631335      -0.19088082
C        1.92379860      -0.20093682      -0.21706217
N        1.60638255       1.13247311       0.03975839
C        0.36446687       1.14029147       0.36708812
H       -1.57298165      -0.22259600      -1.37937298
H       -1.97334302      -1.24786616       0.00540657
H       -2.22664903       0.50179753       0.11018902
H        0.08981975      -1.17127314       0.98279872
H        2.95878229      -0.49964519      -0.28703910
H       -0.21667515       2.01116432       0.63779719
12
Frame=13 idx=001945 GeodesicLength=0.6482876782672298 rxn_smarts="[C:1]([n:2]1[c:3]([H:10])[c:4]([H:11])[n:5][c:6]1[H:12])([H:7])([H:8])[H:9]>>[C:1]([N+:2]1([H:10])[C-:3]=[C:4]([H:11])[N:5]=[C:6]1[H:12])([H:7])([H:8])[H:9]"
C       -1.57670563      -0.27560262      -0.29301050
N       -0.22244650      -0.13222281       0.23227643
C        0.84834760      -1.03066008      -0.18455619
C        1.92144060      -0.19598685      -0.22655672
N        1.60115333       1.13782108       0.03123967
C        0.36392391       1.13991132       0.37486089
H       -1.55984975      -0.23918709      -1.38114601
H       -1.98389486      -1.23620691       0.01704379
H       -2.21958382       0.51632628       0.08978927
H        0.08883449      -1.20001975       0.98531072
H        2.95692667      -0.49359658      -0.29333207
H       -0.21814604       2.00942399       0.64808072
12
Frame=14 idx=001945 GeodesicLength=0.6980608218614026 rxn_smarts="[C:1]([n:2]1[c:3]([H:10])[c:4]([H:11])[n:5][c:6]1[H:12])([H:7])([H:8])[H:9]>>[C:1]([N+:2]1([H:10])[C-:3]=[C:4]([H:11])[N:5]=[C:6]1[H:12])([H:7])([H:8])[H:9]"
C       -1.57320842      -0.27365826      -0.29397691
N       -0.22219839      -0.13476512       0.24140400
C        0.84757827      -1.02502846      -0.17765108
C        1.91893193      -0.19103245      -0.23589249
N        1.59578387       1.14320184       0.02284369
C        0.36341691       1.13967787       0.38251007
H       -1.54680380      -0.25590776      -1.38243126
H       -1.99441967      -1.22412190       0.02854592
H       -2.21204717       0.53060753       0.06930725
H        0.08764771      -1.22945512       0.98708523
H        2.95494273      -0.48738860      -0.29978053
H       -0.21962396       2.00787043       0.65803611
12
Frame=15 idx=001945 GeodesicLength=0.7478328296370287 rxn_smarts="[C:1]([n:2]1[c:3]([H:10])[c:4]([H:11])[n:5][c:6]1[H:12])([H:7])([H:8])[H:9]>>[C:1]([N+:2]1([H:10])[C-:3]=[C:4]([H:11])[N:5]=[C:6]1[H:12])([H:7])([H:8])[H:9]"
C       -1.56960193      -0.27168862      -0.29485679
N       -0.22195652      -0.13718852       0.25067553
C        0.84691641      -1.01939233      -0.17009182
C        1.91624852      -0.18606164      -0.24505994
N        1.59026299       1.14860250       0.01462996
C        0.36292826       1.13958666       0.39006869
H       -1.53376775      -0.27294155      -1.38323137
H       -2.00493935      -1.21151252       0.04003438
H       -2.20399965       0.54471552       0.04852934
H        0.08622945      -1.25958590       0.98807147
H        2.95279677      -0.48099124      -0.30657394
H       -0.22111720       2.00645764       0.66780448
12
Frame=16 idx=001945 GeodesicLength=0.7976003945281335 rxn_smarts="[C:1]([n:2]1[c:3]([H:10])[c:4]([H:11])[n:5][c:6]1[H:12])([H:7])([H:8])[H:9]>>[C:1]([N+:2]1([H:10])[C-:3]=[C:4]([H:11])[N:5]=[C:6]1[H:12])([H:7])([H:8])[H:9]"
C       -1.56588910      -0.26969464      -0.29561083
N       -0.22172083      -0.13947928       0.26011567
C        0.84635592      -1.01374312      -0.16185881
C        1.91338355      -0.18109413      -0.25405010
N        1.58460933       1.15401550       0.00658761
C        0.36246599       1.13965183       0.39753184
H       -1.52076874      -0.29008650      -1.38349462
H       -2.01538488      -1.19847022       0.05135352
H       -2.19546987       0.55852586       0.02769093
H        0.08458651      -1.29042887       0.98820493
H        2.95047711      -0.47445916      -0.31360370
H       -0.22264499       2.00526274       0.67713357
