15
Frame=0 idx=002232 GeodesicLength=0.0 rxn_smarts="[C:1]([C:2]([C:3]([C:4]([O:5][H:15])([H:13])[H:14])([H:11])[H:12])([H:9])[H:10])([H:6])([H:7])[H:8]>>[C:1]([C:2]([C:3]([H:11])([H:12])[H:14])([H:9])[H:10])([H:6])([H:7])[H:8].[C:4]([O:5][H:15])[H:13]"
C       -2.23620207       0.06738782      -0.13466550
C       -0.83284923       0.63933620       0.05270233
C        0.21597421      -0.43776853       0.20235658
C        2.20568943       0.34326862       0.05087767
O        2.90543601      -0.72042175      -0.41742718
H       -2.28489389      -0.56819666      -1.02168433
H       -2.53271634      -0.53857711       0.72450057
H       -2.97406314       0.86309694      -0.25375409
H       -0.58245737       1.27692234      -0.79979456
H       -0.82003196       1.28890762       0.93335236
H        0.38601964      -1.03089597      -0.69127504
H        0.02269187      -1.10942219       1.04522492
H        1.83048105       0.91191980      -0.80217664
H        1.27377161       0.09281167       0.80548313
H        3.42315013      -1.07836879       0.30627978
15
Frame=1 idx=002232 GeodesicLength=0.05487959639589836 rxn_smarts="[C:1]([C:2]([C:3]([C:4]([O:5][H:15])([H:13])[H:14])([H:11])[H:12])([H:9])[H:10])([H:6])([H:7])[H:8]>>[C:1]([C:2]([C:3]([H:11])([H:12])[H:14])([H:9])[H:10])([H:6])([H:7])[H:8].[C:4]([O:5][H:15])[H:13]"
C       -2.23792059       0.06946336      -0.13834648
C       -0.83535457       0.63997136       0.05727962
C        0.21421882      -0.43738808       0.20866070
C        2.20312705       0.33322023       0.04067217
O        2.90835193      -0.73067458      -0.41820897
H       -2.28314613      -0.56165906      -1.02877587
H       -2.53763320      -0.54116250       0.71642352
H       -2.97545270       0.86562153      -0.25633540
H       -0.58124772       1.28076913      -0.79179997
H       -0.82653278       1.28682051       0.94000901
H        0.37114047      -1.03662794      -0.68409123
H        0.01413096      -1.11150743       1.04800350
H        1.83859199       0.90325321      -0.81683090
H        1.27195963       0.09698435       0.82462185
H        3.45576685      -1.05708408       0.29871842
15
Frame=2 idx=002232 GeodesicLength=0.10964249162721774 rxn_smarts="[C:1]([C:2]([C:3]([C:4]([O:5][H:15])([H:13])[H:14])([H:11])[H:12])([H:9])[H:10])([H:6])([H:7])[H:8]>>[C:1]([C:2]([C:3]([H:11])([H:12])[H:14])([H:9])[H:10])([H:6])([H:7])[H:8].[C:4]([O:5][H:15])[H:13]"
C       -2.23957731       0.07154230      -0.14204630
C       -0.83780569       0.64052804       0.06176024
C        0.21247153      -0.43713684       0.21500035
C        2.20039094       0.32291665       0.03086957
O        2.91152771      -0.74081276      -0.41856080
H       -2.28134370      -0.55522400      -1.03576779
H       -2.54249734      -0.54359961       0.70837408
H       -2.97674396       0.86816790      -0.25904049
H       -0.57992854       1.28440008      -0.78395352
H       -0.83295421       1.28476694       0.94646082
H        0.35630285      -1.04238599      -0.67671985
H        0.00551470      -1.11353102       1.05089303
H        1.84699494       0.89452685      -0.83101247
H        1.27002839       0.10120797       0.84389934
H        3.48761968      -1.03536653       0.28984378
15
Frame=3 idx=002232 GeodesicLength=0.16426982910273266 rxn_smarts="[C:1]([C:2]([C:3]([C:4]([O:5][H:15])([H:13])[H:14])([H:11])[H:12])([H:9])[H:10])([H:6])([H:7])[H:8]>>[C:1]([C:2]([C:3]([H:11])([H:12])[H:14])([H:9])[H:10])([H:6])([H:7])[H:8].[C:4]([O:5][H:15])[H:13]"
C       -2.24118644       0.07362840      -0.14574110
C       -0.84020105       0.64099508       0.06610174
C        0.21072246      -0.43702248       0.22134047
C        2.19750417       0.31234715       0.02153828
O        2.91495330      -0.75081470      -0.41848426
H       -2.27952946      -0.54896118      -1.04257175
H       -2.54732084      -0.54579808       0.70042886
H       -2.97793730       0.87073580      -0.26190002
H       -0.57851503       1.28775692      -0.77632541
H       -0.83925744       1.28276773       0.95262840
H        0.34152739      -1.04812748      -0.66921397
H       -0.00319186      -1.11552616       1.05381577
H        1.85572930       0.88581983      -0.84456678
H        1.26794035       0.10542474       0.86335184
H        3.51876244      -1.01322557       0.27959793
15
Frame=4 idx=002232 GeodesicLength=0.2187752314157845 rxn_smarts="[C:1]([C:2]([C:3]([C:4]([O:5][H:15])([H:13])[H:14])([H:11])[H:12])([H:9])[H:10])([H:6])([H:7])[H:8]>>[C:1]([C:2]([C:3]([H:11])([H:12])[H:14])([H:9])[H:10])([H:6])([H:7])[H:8].[C:4]([O:5][H:15])[H:13]"
C       -2.24271626       0.07568779      -0.14944049
C       -0.84253415       0.64139034       0.07034694
C        0.20901706      -0.43700565       0.22769114
C        2.19449911       0.30159805       0.01254165
O        2.91868294      -0.76061638      -0.41804624
H       -2.27763839      -0.54284026      -1.04926022
H       -2.55205200      -0.54788301       0.69253430
H       -2.97903496       0.87327745      -0.26486771
H       -0.57701674       1.29091750      -0.76884588
H       -0.84547710       1.28080279       0.95859809
H        0.32683959      -1.05384735      -0.66156038
H       -0.01188694      -1.11744588       1.05681603
H        1.86477177       0.87714648      -0.85765165
H        1.26573994       0.10974642       0.88293319
H        3.54880613      -0.99092830       0.26821123
15
Frame=5 idx=002232 GeodesicLength=0.27318938007963195 rxn_smarts="[C:1]([C:2]([C:3]([C:4]([O:5][H:15])([H:13])[H:14])([H:11])[H:12])([H:9])[H:10])([H:6])([H:7])[H:8]>>[C:1]([C:2]([C:3]([H:11])([H:12])[H:14])([H:9])[H:10])([H:6])([H:7])[H:8].[C:4]([O:5][H:15])[H:13]"
C       -2.24419014       0.07773439      -0.15312657
C       -0.84481166       0.64171212       0.07446291
C        0.20733456      -0.43710795       0.23402106
C        2.19138514       0.29064095       0.00392393
O        2.92270135      -0.77025098      -0.41721550
H       -2.27572514      -0.53689599      -1.05578988
H       -2.55670988      -0.54979346       0.68475348
H       -2.98004658       0.87582246      -0.26794691
H       -0.57545201       1.29385500      -0.76157771
H       -0.85158599       1.27889976       0.96432365
H        0.31223936      -1.05953287      -0.65382079
H       -0.02061268      -1.11934241       1.05983655
H        1.87415375       0.86854273      -0.87017355
H        1.26338190       0.11411100       0.90268190
H        3.57793803      -0.96839474       0.25564743
15
Frame=6 idx=002232 GeodesicLength=0.32746408167453683 rxn_smarts="[C:1]([C:2]([C:3]([C:4]([O:5][H:15])([H:13])[H:14])([H:11])[H:12])([H:9])[H:10])([H:6])([H:7])[H:8]>>[C:1]([C:2]([C:3]([H:11])([H:12])[H:14])([H:9])[H:10])([H:6])([H:7])[H:8].[C:4]([O:5][H:15])[H:13]"
C       -2.24557633       0.07972299      -0.15676629
C       -0.84701573       0.64196445       0.07845582
C        0.20573295      -0.43727680       0.24027432
C        2.18820267       0.27958941      -0.00445427
O        2.92708051      -0.77958172      -0.41607776
H       -2.27376567      -0.53111870      -1.06215491
H       -2.56121037      -0.55163208       0.67708906
H       -2.98097415       0.87829260      -0.27102748
H       -0.57384929       1.29660746      -0.75449404
H       -0.85756675       1.27702863       0.96982472
H        0.29777497      -1.06511629      -0.64605467
H       -0.02925287      -1.12117742       1.06281533
H        1.88387245       0.86007384      -0.88225729
H        1.26090506       0.11862840       0.92250858
H        3.60564254      -0.94600476       0.24231888
15
Frame=7 idx=002232 GeodesicLength=0.38162942271953826 rxn_smarts="[C:1]([C:2]([C:3]([C:4]([O:5][H:15])([H:13])[H:14])([H:11])[H:12])([H:9])[H:10])([H:6])([H:7])[H:8]>>[C:1]([C:2]([C:3]([H:11])([H:12])[H:14])([H:9])[H:10])([H:6])([H:7])[H:8].[C:4]([O:5][H:15])[H:13]"
C       -2.24690109       0.08168830      -0.16038538
C       -0.84915729       0.64213998       0.08231887
C        0.20415441      -0.43754822       0.24649458
C        2.18494034       0.26834547      -0.01250843
O        2.93172895      -0.78871671      -0.41460097
H       -2.27178239      -0.52552983      -1.06834128
H       -2.56563682      -0.55329930       0.66954414
H       -2.98180394       0.88074234      -0.27421688
H       -0.57217848       1.29913241      -0.74761500
H       -0.86342601       1.27520747       0.97507222
H        0.28339404      -1.07063754      -0.63821369
H       -0.03792114      -1.12297478       1.06578667
H        1.89394765       0.85173192      -0.89374392
H        1.25824985       0.12319215       0.94250096
H        3.63239193      -0.92347365       0.22790811
15
Frame=8 idx=002232 GeodesicLength=0.4357099009393931 rxn_smarts="[C:1]([C:2]([C:3]([C:4]([O:5][H:15])([H:13])[H:14])([H:11])[H:12])([H:9])[H:10])([H:6])([H:7])[H:8]>>[C:1]([C:2]([C:3]([H:11])([H:12])[H:14])([H:9])[H:10])([H:6])([H:7])[H:8].[C:4]([O:5][H:15])[H:13]"
C       -2.24815332       0.08359537      -0.16395678
C       -0.85123511       0.64225555       0.08605751
C        0.20265872      -0.43788680       0.25263144
C        2.18163663       0.25701398      -0.02037079
O        2.93673226      -0.79754611      -0.41289033
H       -2.26977281      -0.52013353      -1.07436527
H       -2.56991886      -0.55488625       0.66214262
H       -2.98256862       0.88312758      -0.27742242
H       -0.57049607       1.30148914      -0.74093711
H       -0.86916226       1.27343961       0.98010400
H        0.26915069      -1.07606159      -0.63037412
H       -0.04649125      -1.12472905       1.06871085
H        1.90436253       0.84360111      -0.90476434
H        1.25546049       0.12789283       0.96260027
H        3.65779699      -0.90117184       0.21283447
15
Frame=9 idx=002232 GeodesicLength=0.4897101546696004 rxn_smarts="[C:1]([C:2]([C:3]([C:4]([O:5][H:15])([H:13])[H:14])([H:11])[H:12])([H:9])[H:10])([H:6])([H:7])[H:8]>>[C:1]([C:2]([C:3]([H:11])([H:12])[H:14])([H:9])[H:10])([H:6])([H:7])[H:8].[C:4]([O:5][H:15])[H:13]"
C       -2.24934125       0.08547179      -0.16749256
C       -0.85325184       0.64230245       0.08968419
C        0.20120774      -0.43831587       0.25869892
C        2.17826997       0.24552982      -0.02805461
O        2.94205208      -0.80615108      -0.41086874
H       -2.26774522      -0.51488305      -1.08024502
H       -2.57409735      -0.55636561       0.65485661
H       -2.98324881       0.88548880      -0.28065218
H       -0.56877458       1.30366873      -0.73443296
H       -0.87477887       1.27170347       0.98493356
H        0.25500079      -1.08141140      -0.62251705
H       -0.05502696      -1.12645507       1.07159399
H        1.91511802       0.83559040      -0.91532360
H        1.25249382       0.13267410       0.98282740
H        3.68212247      -0.87884748       0.19699204
15
Frame=10 idx=002232 GeodesicLength=0.5436490581603876 rxn_smarts="[C:1]([C:2]([C:3]([C:4]([O:5][H:15])([H:13])[H:14])([H:11])[H:12])([H:9])[H:10])([H:6])([H:7])[H:8]>>[C:1]([C:2]([C:3]([H:11])([H:12])[H:14])([H:9])[H:10])([H:6])([H:7])[H:8].[C:4]([O:5][H:15])[H:13]"
C       -2.25046134       0.08730954      -0.17101515
C       -0.85521198       0.64229162       0.09323746
C        0.19981747      -0.43881673       0.26472551
C        2.17485282       0.23391199      -0.03566063
O        2.94770004      -0.81451838      -0.40859581
H       -2.26566832      -0.50973148      -1.08604419
H       -2.57816728      -0.55781037       0.64761532
H       -2.98386066       0.88781099      -0.28390089
H       -0.56701456       1.30571975      -0.72803349
H       -0.88031170       1.26997741       0.98962530
H        0.24092625      -1.08670797      -0.61459290
H       -0.06348070      -1.12811101       1.07449585
H        1.92618112       0.82768823      -0.92551546
H        1.24938645       0.13759125       1.00316113
H        3.70531238      -0.85660485       0.18049796
15
Frame=11 idx=002232 GeodesicLength=0.5975330147804313 rxn_smarts="[C:1]([C:2]([C:3]([C:4]([O:5][H:15])([H:13])[H:14])([H:11])[H:12])([H:9])[H:10])([H:6])([H:7])[H:8]>>[C:1]([C:2]([C:3]([H:11])([H:12])[H:14])([H:9])[H:10])([H:6])([H:7])[H:8].[C:4]([O:5][H:15])[H:13]"
C       -2.25150197       0.08911960      -0.17455513
C       -0.85711722       0.64221918       0.09673945
C        0.19846280      -0.43939194       0.27076324
C        2.17136879       0.22210998      -0.04319446
O        2.95362815      -0.82269297      -0.40605996
H       -2.26349368      -0.50465253      -1.09179695
H       -2.58215899      -0.55921564       0.64036669
H       -2.98437708       0.89010285      -0.28722283
H       -0.56517745       1.30763958      -0.72170018
H       -0.88579845       1.26824433       0.99420166
H        0.22689640      -1.09197733      -0.60652523
H       -0.07190337      -1.12966886       1.07748477
H        1.93754759       0.81986177      -0.93530833
H        1.24610641       0.14263252       1.02363900
H        3.72751807      -0.83433055       0.16316826
15
Frame=12 idx=002232 GeodesicLength=0.6513747097086083 rxn_smarts="[C:1]([C:2]([C:3]([C:4]([O:5][H:15])([H:13])[H:14])([H:11])[H:12])([H:9])[H:10])([H:6])([H:7])[H:8]>>[C:1]([C:2]([C:3]([H:11])([H:12])[H:14])([H:9])[H:10])([H:6])([H:7])[H:8].[C:4]([O:5][H:15])[H:13]"
C       -2.25246590       0.09089037      -0.17809062
C       -0.85896589       0.64209402       0.10019221
C        0.19717265      -0.44003003       0.27676858
C        2.16783278       0.21016878      -0.05075913
O        2.95988956      -0.83061556      -0.40330976
H       -2.26124472      -0.49963717      -1.09750454
H       -2.58603592      -0.56062723       0.63312588
H       -2.98482152       0.89235214      -0.29055013
H       -0.56329815       1.30946409      -0.71542678
H       -0.89122011       1.26650131       0.99868378
H        0.21292551      -1.09720296      -0.59837282
H       -0.08022713      -1.13114143       1.08051646
H        1.94919935       0.81213950      -0.94479903
H        1.24268047       0.14783377       1.04421879
H        3.74857902      -0.81218960       0.14530711
15
Frame=13 idx=002232 GeodesicLength=0.7051796135433204 rxn_smarts="[C:1]([C:2]([C:3]([C:4]([O:5][H:15])([H:13])[H:14])([H:11])[H:12])([H:9])[H:10])([H:6])([H:7])[H:8]>>[C:1]([C:2]([C:3]([H:11])([H:12])[H:14])([H:9])[H:10])([H:6])([H:7])[H:8].[C:4]([O:5][H:15])[H:13]"
C       -2.25335462       0.09262655      -0.18162644
C       -0.86075992       0.64191511       0.10359718
C        0.19593974      -0.44073197       0.28274844
C        2.16424378       0.19806721      -0.05837057
O        2.96646877      -0.83829789      -0.40034062
H       -2.25891731      -0.49468147      -1.10316917
H       -2.58980824      -0.56203561       0.62588719
H       -2.98519157       0.89456320      -0.29389486
H       -0.56137192       1.31118863      -0.70921073
H       -0.89658378       1.26474664       1.00307095
H        0.19900520      -1.10238826      -0.59012449
H       -0.08846730      -1.13252578       1.08359796
H        1.96113967       0.80452791      -0.95396300
H        1.23908821       0.15318379       1.06492081
H        3.76856928      -0.79015806       0.12687734
15
Frame=14 idx=002232 GeodesicLength=0.7589500546467863 rxn_smarts="[C:1]([C:2]([C:3]([C:4]([O:5][H:15])([H:13])[H:14])([H:11])[H:12])([H:9])[H:10])([H:6])([H:7])[H:8]>>[C:1]([C:2]([C:3]([H:11])([H:12])[H:14])([H:9])[H:10])([H:6])([H:7])[H:8].[C:4]([O:5][H:15])[H:13]"
C       -2.25416540       0.09432127      -0.18515550
C       -0.86249744       0.64168499       0.10695142
C        0.19477281      -0.44148961       0.28869131
C        2.16060662       0.18581349      -0.06607497
O        2.97336418      -0.84571229      -0.39719790
H       -2.25651220      -0.48979424      -1.10878330
H       -2.59346365      -0.56344962       0.61866163
H       -2.98548937       0.89672513      -0.29724641
H       -0.55940822       1.31281870      -0.70305796
H       -0.90188458       1.26298315       1.00736079
H        0.18513913      -1.10752512      -0.58179250
H       -0.09660659      -1.13381967       1.08671858
H        1.97336668       0.79707595      -0.96279775
H        1.23532492       0.15869252       1.08574433
H        3.78745310      -0.76832465       0.10797822
15
Frame=15 idx=002232 GeodesicLength=0.8126856887299184 rxn_smarts="[C:1]([C:2]([C:3]([C:4]([O:5][H:15])([H:13])[H:14])([H:11])[H:12])([H:9])[H:10])([H:6])([H:7])[H:8]>>[C:1]([C:2]([C:3]([H:11])([H:12])[H:14])([H:9])[H:10])([H:6])([H:7])[H:8].[C:4]([O:5][H:15])[H:13]"
C       -2.25489721       0.09596565      -0.18866146
C       -0.86417617       0.64140596       0.11024900
C        0.19368578      -0.44229199       0.29457121
C        2.15692663       0.17342376      -0.07394048
O        2.98058250      -0.85281547      -0.39394894
H       -2.25403886      -0.48498346      -1.11433130
H       -2.59698269      -0.56488220       0.61147060
H       -2.98572225       0.89882295      -0.30057473
H       -0.55742415       1.31436101      -0.69697835
H       -0.90711100       1.26121123       1.01154911
H        0.17133388      -1.11259869      -0.57340533
H       -0.10461571      -1.13502163       1.08985152
H        1.98587840       0.78984129      -0.97131917
H        1.23139082       0.16437280       1.10667273
H        3.80517002      -0.74681121       0.08879559
15
Frame=16 idx=002232 GeodesicLength=0.8663867960750284 rxn_smarts="[C:1]([C:2]([C:3]([C:4]([O:5][H:15])([H:13])[H:14])([H:11])[H:12])([H:9])[H:10])([H:6])([H:7])[H:8]>>[C:1]([C:2]([C:3]([H:11])([H:12])[H:14])([H:9])[H:10])([H:6])([H:7])[H:8].[C:4]([O:5][H:15])[H:13]"
C       -2.25555079       0.09755172      -0.19212668
C       -0.86579414       0.64108028       0.11348275
C        0.19269147      -0.44312953       0.30036067
C        2.15320649       0.16090956      -0.08204113
O        2.98812497      -0.85956759      -0.39067353
H       -2.25151084      -0.48025808      -1.11979541
H       -2.60034742      -0.56634376       0.60433887
H       -2.98589850       0.90084341      -0.30384927
H       -0.55543744       1.31582103      -0.69098478
H       -0.91224964       1.25943249       1.01563004
H        0.15759274      -1.11759688      -0.56499171
H       -0.11246628      -1.13613069       1.09297011
H        1.99867364       0.78288806      -0.97954069
H        1.22728593       0.17023360       1.12768809
H        3.82167981      -0.72573361       0.06953268
