16
Frame=0 idx=011236 GeodesicLength=0.0 rxn_smarts="[C:1]([C@@:2]([O:3][H:12])([C@@:4]([C:5]([H:14])([H:15])[H:16])([C:6]#[N:7])[H:13])[H:11])([H:8])([H:9])[H:10]>>[C:1]1([H:9])([H:10])[C@:2]([O:3][H:12])([H:11])[C@:4]([C:5]([H:14])([H:15])[H:16])([H:13])[C:6][N:7]1[H:8]"
C       -1.48097577      -0.09833308      -0.58072654
C       -0.65547759      -0.30758556       0.63008532
O       -0.27524027      -1.66166825       0.87371192
C        0.73075786       0.48244806       0.58936436
C        1.82747817      -0.25793571      -0.17753623
C        0.42785987       1.75554786      -0.10379914
N       -0.51412765       1.86933600      -0.83318513
H       -1.36856808       1.72049456      -1.35350626
H       -2.54511803       0.05121096      -0.41696855
H       -1.25549428      -0.75218541      -1.42170650
H       -1.18884634       0.08072946       1.50698198
H       -1.05839244      -2.20210785       0.77180822
H        1.06719973       0.65570453       1.61312001
H        2.74548803       0.32872602      -0.19474232
H        1.52064630      -0.45118374      -1.20706266
H        2.02281045      -1.21319791       0.30416152
16
Frame=1 idx=011236 GeodesicLength=0.09645408135648265 rxn_smarts="[C:1]([C@@:2]([O:3][H:12])([C@@:4]([C:5]([H:14])([H:15])[H:16])([C:6]#[N:7])[H:13])[H:11])([H:8])([H:9])[H:10]>>[C:1]1([H:9])([H:10])[C@:2]([O:3][H:12])([H:11])[C@:4]([C:5]([H:14])([H:15])[H:16])([H:13])[C:6][N:7]1[H:8]"
C       -1.47288781      -0.08670085      -0.58487858
C       -0.65365438      -0.30484962       0.63242133
O       -0.28339665      -1.66075805       0.87500124
C        0.73107130       0.48093220       0.59063607
C        1.82480303      -0.25727634      -0.18258104
C        0.43078221       1.76001195      -0.09457464
N       -0.51822869       1.88414202      -0.81550429
H       -1.36851740       1.68190290      -1.36439973
H       -2.54064390       0.03855349      -0.42177142
H       -1.23995510      -0.74378484      -1.42176466
H       -1.18921781       0.08476415       1.50741239
H       -1.07190021      -2.19540277       0.78355013
H        1.07056211       0.65005564       1.61406529
H        2.74386702       0.32785072      -0.19742717
H        1.51741883      -0.44367776      -1.21316650
H        2.01989744      -1.21576284       0.29298157
16
Frame=2 idx=011236 GeodesicLength=0.192953974054837 rxn_smarts="[C:1]([C@@:2]([O:3][H:12])([C@@:4]([C:5]([H:14])([H:15])[H:16])([C:6]#[N:7])[H:13])[H:11])([H:8])([H:9])[H:10]>>[C:1]1([H:9])([H:10])[C@:2]([O:3][H:12])([H:11])[C@:4]([C:5]([H:14])([H:15])[H:16])([H:13])[C:6][N:7]1[H:8]"
C       -1.46494091      -0.07554924      -0.58898927
C       -0.65189097      -0.30227252       0.63469736
O       -0.29152090      -1.65988020       0.87637140
C        0.73124219       0.47941623       0.59171372
C        1.82208224      -0.25661623      -0.18760673
C        0.43344724       1.76423864      -0.08581358
N       -0.52248246       1.89818225      -0.79830289
H       -1.36788561       1.64529190      -1.37395985
H       -2.53578641       0.02589710      -0.42703402
H       -1.22449734      -0.73582050      -1.42170108
H       -1.18964718       0.08871981       1.50773643
H       -1.08517072      -2.18872769       0.79548874
H        1.07370937       0.64464659       1.61477104
H        2.74213340       0.32705913      -0.20019964
H        1.51420992      -0.43641268      -1.21917827
H        2.01699814      -1.21817258       0.28200663
16
Frame=3 idx=011236 GeodesicLength=0.2895560629946196 rxn_smarts="[C:1]([C@@:2]([O:3][H:12])([C@@:4]([C:5]([H:14])([H:15])[H:16])([C:6]#[N:7])[H:13])[H:11])([H:8])([H:9])[H:10]>>[C:1]1([H:9])([H:10])[C@:2]([O:3][H:12])([H:11])[C@:4]([C:5]([H:14])([H:15])[H:16])([H:13])[C:6][N:7]1[H:8]"
C       -1.45710121      -0.06481282      -0.59304687
C       -0.65017083      -0.29983480       0.63692618
O       -0.29962669      -1.65902838       0.87780829
C        0.73130466       0.47788466       0.59263726
C        1.81933348      -0.25596726      -0.19260395
C        0.43591037       1.76825287      -0.07741342
N       -0.52679703       1.91154597      -0.78153675
H       -1.36701505       1.61044683      -1.38248983
H       -2.53054297       0.01325559      -0.43269552
H       -1.20909548      -0.72821144      -1.42151401
H       -1.19011506       0.09260494       1.50797169
H       -1.09822500      -2.18205849       0.80759167
H        1.07668364       0.63941150       1.61528471
H        2.74031676       0.32632138      -0.20302481
H        1.51103415      -0.42934478      -1.22510054
H        2.01410628      -1.22046577       0.27120590
16
Frame=4 idx=011236 GeodesicLength=0.3863363463883218 rxn_smarts="[C:1]([C@@:2]([O:3][H:12])([C@@:4]([C:5]([H:14])([H:15])[H:16])([C:6]#[N:7])[H:13])[H:11])([H:8])([H:9])[H:10]>>[C:1]1([H:9])([H:10])[C@:2]([O:3][H:12])([H:11])[C@:4]([C:5]([H:14])([H:15])[H:16])([H:13])[C:6][N:7]1[H:8]"
C       -1.44935764      -0.05443141      -0.59703686
C       -0.64848359      -0.29751940       0.63912698
O       -0.30772022      -1.65820185       0.87929757
C        0.73128642       0.47632967       0.59344434
C        1.81656925      -0.25533503      -0.19757288
C        0.43821429       1.77208001      -0.06928889
N       -0.53115808       1.92435146      -0.76506623
H       -1.36608089       1.57711557      -1.39035306
H       -2.52492999       0.00065732      -0.43869530
H       -1.19374881      -0.72089335      -1.42120012
H       -1.19060654       0.09642457       1.50814952
H       -1.11107670      -2.17538336       0.81982705
H        1.07952881       0.63430250       1.61565175
H        2.73844399       0.32561591      -0.20588221
H        1.50789527      -0.42243937      -1.23094492
H        2.01122444      -1.22267323       0.26054325
16
Frame=5 idx=011236 GeodesicLength=0.4827946930723702 rxn_smarts="[C:1]([C@@:2]([O:3][H:12])([C@@:4]([C:5]([H:14])([H:15])[H:16])([C:6]#[N:7])[H:13])[H:11])([H:8])([H:9])[H:10]>>[C:1]1([H:9])([H:10])[C@:2]([O:3][H:12])([H:11])[C@:4]([C:5]([H:14])([H:15])[H:16])([H:13])[C:6][N:7]1[H:8]"
C       -1.44170971      -0.04436334      -0.60095071
C       -0.64682440      -0.29532002       0.64130706
O       -0.31580301      -1.65740534       0.88081866
C        0.73119815       0.47475040       0.59415113
C        1.81379562      -0.25471929      -0.20251156
C        0.44037020       1.77573161      -0.06141183
N       -0.53556204       1.93664500      -0.74880716
H       -1.36512299       1.54515444      -1.39774656
H       -2.51896319      -0.01187754      -0.44497855
H       -1.17847281      -0.71382265      -1.42075709
H       -1.19111037       0.10017038       1.50828810
H       -1.12373358      -2.16870068       0.83217238
H        1.08226258       0.62930459       1.61589250
H        2.73652345       0.32494168      -0.20876469
H        1.50479155      -0.41568524      -1.23671355
H        2.00836056      -1.22480401       0.25001189
16
Frame=6 idx=011236 GeodesicLength=0.5793422663121994 rxn_smarts="[C:1]([C@@:2]([O:3][H:12])([C@@:4]([C:5]([H:14])([H:15])[H:16])([C:6]#[N:7])[H:13])[H:11])([H:8])([H:9])[H:10]>>[C:1]1([H:9])([H:10])[C@:2]([O:3][H:12])([H:11])[C@:4]([C:5]([H:14])([H:15])[H:16])([H:13])[C:6][N:7]1[H:8]"
C       -1.43414976      -0.03455810      -0.60476484
C       -0.64518698      -0.29322281       0.64349105
O       -0.32388161      -1.65663471       0.88236713
C        0.73105648       0.47314065       0.59478742
C        1.81100782      -0.25411624      -0.20743333
C        0.44241486       1.77922653      -0.05371201
N       -0.54005667       1.94857603      -0.73253455
H       -1.36415852       1.51426904      -1.40507768
H       -2.51265509      -0.02430834      -0.45149540
H       -1.16326989      -0.70695541      -1.42016315
H       -1.19161417       0.10384117       1.50842441
H       -1.13620322      -2.16200032       0.84460767
H        1.08492069       0.62437304       1.61603751
H        2.73456458       0.32428348      -0.21167002
H        1.50170972      -0.40903956      -1.24242515
H        2.00550175      -1.22687447       0.23956095
16
Frame=7 idx=011236 GeodesicLength=0.6759533702166459 rxn_smarts="[C:1]([C@@:2]([O:3][H:12])([C@@:4]([C:5]([H:14])([H:15])[H:16])([C:6]#[N:7])[H:13])[H:11])([H:8])([H:9])[H:10]>>[C:1]1([H:9])([H:10])[C@:2]([O:3][H:12])([H:11])[C@:4]([C:5]([H:14])([H:15])[H:16])([H:13])[C:6][N:7]1[H:8]"
C       -1.42667228      -0.02497373      -0.60846756
C       -0.64356841      -0.29121991       0.64568990
O       -0.33196101      -1.65588910       0.88393079
C        0.73086835       0.47149987       0.59536844
C        1.80819970      -0.25351765      -0.21234749
C        0.44436283       1.78257834      -0.04615452
N       -0.54468461       1.96022406      -0.71609787
H       -1.36313251       1.48424338      -1.41259434
H       -2.50601458      -0.03659574      -0.45819941
H       -1.14815744      -0.70026720      -1.41939836
H       -1.19210912       0.10742841       1.50857908
H       -1.14849490      -2.15527562       0.85712022
H        1.08752121       0.61948469       1.61610242
H        2.73256612       0.32364135      -0.21460105
H        1.49863645      -0.40247318      -1.24809164
H        2.00264020      -1.22888799       0.22916140
16
Frame=8 idx=011236 GeodesicLength=0.7725997137959858 rxn_smarts="[C:1]([C@@:2]([O:3][H:12])([C@@:4]([C:5]([H:14])([H:15])[H:16])([C:6]#[N:7])[H:13])[H:11])([H:8])([H:9])[H:10]>>[C:1]1([H:9])([H:10])[C@:2]([O:3][H:12])([H:11])[C@:4]([C:5]([H:14])([H:15])[H:16])([H:13])[C:6][N:7]1[H:8]"
C       -1.41927339      -0.01557558      -0.61205084
C       -0.64196745      -0.28930422       0.64791200
O       -0.34004608      -1.65516612       0.88550154
C        0.73063850       0.46982861       0.59590562
C        1.80536523      -0.25291613      -0.21726292
C        0.44622451       1.78579804      -0.03871346
N       -0.54948317       1.97165494      -0.69936663
H       -1.36198425       1.45489220      -1.42049533
H       -2.49905074      -0.04870089      -0.46505451
H       -1.13315384      -0.69374605      -1.41844428
H       -1.19258959       0.11092627       1.50876884
H       -1.16061274      -2.14852073       0.86969854
H        1.09007775       0.61462245       1.61609838
H        2.73052653       0.32301590      -0.21756221
H        1.49556018      -0.39596296      -1.25372332
H        1.99976856      -1.23084572       0.21878857
16
Frame=9 idx=011236 GeodesicLength=0.8688229950635282 rxn_smarts="[C:1]([C@@:2]([O:3][H:12])([C@@:4]([C:5]([H:14])([H:15])[H:16])([C:6]#[N:7])[H:13])[H:11])([H:8])([H:9])[H:10]>>[C:1]1([H:9])([H:10])[C@:2]([O:3][H:12])([H:11])[C@:4]([C:5]([H:14])([H:15])[H:16])([H:13])[C:6][N:7]1[H:8]"
C       -1.41194635      -0.00635266      -0.61551981
C       -0.64038360      -0.28747219       0.65015637
O       -0.34813878      -1.65446351       0.88707738
C        0.73036801       0.46812746       0.59640055
C        1.80250375      -0.25230950      -0.22218221
C        0.44800430       1.78889021      -0.03138287
N       -0.55446335       1.98289300      -0.68232659
H       -1.36067779       1.42616929      -1.42880942
H       -2.49178300      -0.06063031      -0.47203662
H       -1.11826609      -0.68739633      -1.41729688
H       -1.19305667       0.11433512       1.50899378
H       -1.17256438      -2.14173097       0.88234017
H        1.09259198       0.60978256       1.61602696
H        2.72844625       0.32240705      -0.22055319
H        1.49248071      -0.38950149      -1.25932347
H        1.99688500      -1.23274777       0.20843585
16
Frame=10 idx=011236 GeodesicLength=0.9650456528560968 rxn_smarts="[C:1]([C@@:2]([O:3][H:12])([C@@:4]([C:5]([H:14])([H:15])[H:16])([C:6]#[N:7])[H:13])[H:11])([H:8])([H:9])[H:10]>>[C:1]1([H:9])([H:10])[C@:2]([O:3][H:12])([H:11])[C@:4]([C:5]([H:14])([H:15])[H:16])([H:13])[C:6][N:7]1[H:8]"
C       -1.40468734       0.00274943      -0.61886615
C       -0.63881590      -0.28571348       0.65242994
O       -0.35624667      -1.65377652       0.88864207
C        0.73006308       0.46640025       0.59686588
C        1.79960909      -0.25168686      -0.22711515
C        0.44971240       1.79186918      -0.02413787
N       -0.55966650       1.99400766      -0.66478911
H       -1.35914111       1.39780421      -1.43778452
H       -2.48421369      -0.07230275      -0.47910775
H       -1.10352979      -0.68121007      -1.41592626
H       -1.19350139       0.11764649       1.50927474
H       -1.18435206      -2.13490040       0.89502114
H        1.09508019       0.60494958       1.61590095
H        2.72632399       0.32181888      -0.22358155
H        1.48938333      -0.38306368      -1.26490321
H        1.99398235      -1.23459193       0.19807686
16
Frame=11 idx=011236 GeodesicLength=1.0613713383281744 rxn_smarts="[C:1]([C@@:2]([O:3][H:12])([C@@:4]([C:5]([H:14])([H:15])[H:16])([C:6]#[N:7])[H:13])[H:11])([H:8])([H:9])[H:10]>>[C:1]1([H:9])([H:10])[C@:2]([O:3][H:12])([H:11])[C@:4]([C:5]([H:14])([H:15])[H:16])([H:13])[C:6][N:7]1[H:8]"
C       -1.39748755       0.01176964      -0.62209545
C       -0.63726346      -0.28401848       0.65473068
O       -0.36437585      -1.65309860       0.89018386
C        0.72972819       0.46465129       0.59730564
C        1.79668000      -0.25104197      -0.23206612
C        0.45135793       1.79474408      -0.01697212
N       -0.56510728       2.00503967      -0.64664838
H       -1.35734064       1.36962517      -1.44752775
H       -2.47635151      -0.08367379      -0.48624233
H       -1.08896962      -0.67519279      -1.41431422
H       -1.19392042       0.12085914       1.50961699
H       -1.19598236      -2.12802154       0.90772036
H        1.09754958       0.60011903       1.61572462
H        2.72416135       0.32125321      -0.22665029
H        1.48626410      -0.37663862      -1.27046717
H        1.99105752      -1.23637543       0.18770168
16
Frame=12 idx=011236 GeodesicLength=1.1577665914586655 rxn_smarts="[C:1]([C@@:2]([O:3][H:12])([C@@:4]([C:5]([H:14])([H:15])[H:16])([C:6]#[N:7])[H:13])[H:11])([H:8])([H:9])[H:10]>>[C:1]1([H:9])([H:10])[C@:2]([O:3][H:12])([H:11])[C@:4]([C:5]([H:14])([H:15])[H:16])([H:13])[C:6][N:7]1[H:8]"
C       -1.39033657       0.02073578      -0.62521844
C       -0.63572594      -0.28237868       0.65705411
O       -0.37253180      -1.65242260       0.89169747
C        0.72936691       0.46288428       0.59772056
C        1.79371638      -0.25037129      -0.23703871
C        0.45295077       1.79752203      -0.00988431
N       -0.57080342       2.01602362      -0.62782269
H       -1.35525066       1.34151076      -1.45810421
H       -2.46820376      -0.09471241      -0.49342205
H       -1.07460254      -0.66936071      -1.41244625
H       -1.19431336       0.12397542       1.51001969
H       -1.20746159      -2.12108726       0.92042353
H        1.10000473       0.59528853       1.61549902
H        2.72196091       0.32070936      -0.22976163
H        1.48312219      -0.37021995      -1.27601963
H        1.98810776      -1.23809686       0.17730354
16
Frame=13 idx=011236 GeodesicLength=1.2541963033994592 rxn_smarts="[C:1]([C@@:2]([O:3][H:12])([C@@:4]([C:5]([H:14])([H:15])[H:16])([C:6]#[N:7])[H:13])[H:11])([H:8])([H:9])[H:10]>>[C:1]1([H:9])([H:10])[C@:2]([O:3][H:12])([H:11])[C@:4]([C:5]([H:14])([H:15])[H:16])([H:13])[C:6][N:7]1[H:8]"
C       -1.38322181       0.02968083      -0.62825118
C       -0.63420276      -0.28078480       0.65939118
O       -0.38072073      -1.65174079       0.89317193
C        0.72898280       0.46110434       0.59810969
C        1.79072022      -0.24967069      -0.24203411
C        0.45449890       1.80021060      -0.00287810
N       -0.57675611       2.02697884      -0.60824107
H       -1.35285899       1.31334033      -1.46955053
H       -2.45978124      -0.10538603      -0.50062703
H       -1.06044984      -0.66373237      -1.41030850
H       -1.19468013       0.12699696       1.51047845
H       -1.21879617      -2.11408869       0.93311243
H        1.10244749       0.59045935       1.61522419
H        2.71972624       0.32018902      -0.23291578
H        1.47995976      -0.36380399      -1.28156255
H        1.98513236      -1.23975292       0.16688099
16
Frame=14 idx=011236 GeodesicLength=1.3507099704486978 rxn_smarts="[C:1]([C@@:2]([O:3][H:12])([C@@:4]([C:5]([H:14])([H:15])[H:16])([C:6]#[N:7])[H:13])[H:11])([H:8])([H:9])[H:10]>>[C:1]1([H:9])([H:10])[C@:2]([O:3][H:12])([H:11])[C@:4]([C:5]([H:14])([H:15])[H:16])([H:13])[C:6][N:7]1[H:8]"
C       -1.37612900       0.03863596      -0.63120874
C       -0.63269392      -0.27922627       0.66173583
O       -0.38894944      -1.65104298       0.89460435
C        0.72858014       0.45931595       0.59847306
C        1.78769163      -0.24893668      -0.24705660
C        0.45601275       1.80281682       0.00404398
N       -0.58298330       2.03794344      -0.58779976
H       -1.35015181       1.28497495      -1.48193444
H       -2.45108250      -0.11565197      -0.50784414
H       -1.04652827      -0.65833304      -1.40788163
H       -1.19502129       0.12992847       1.51099018
H       -1.22999327      -2.10701740       0.94576736
H        1.10488310       0.58563016       1.61490044
H        2.71746061       0.31969062      -0.23611586
H        1.47677676      -0.35738559      -1.28710081
H        1.98212781      -1.24134244       0.15642678
16
Frame=15 idx=011236 GeodesicLength=1.447272313350058 rxn_smarts="[C:1]([C@@:2]([O:3][H:12])([C@@:4]([C:5]([H:14])([H:15])[H:16])([C:6]#[N:7])[H:13])[H:11])([H:8])([H:9])[H:10]>>[C:1]1([H:9])([H:10])[C@:2]([O:3][H:12])([H:11])[C@:4]([C:5]([H:14])([H:15])[H:16])([H:13])[C:6][N:7]1[H:8]"
C       -1.36904097       0.04763374      -0.63411335
C       -0.63119908      -0.27769231       0.66407636
O       -0.39722482      -1.65031858       0.89598704
C        0.72816312       0.45752463       0.59880806
C        1.78463393      -0.24816629      -0.25210717
C        0.45750190       1.80534766       0.01087370
N       -0.58948551       2.04893771      -0.56641899
H       -1.34713659       1.25629596      -1.49527966
H       -2.44211150      -0.12547347      -0.51505840
H       -1.03285517      -0.65319135      -1.40514937
H       -1.19533840       0.13277467       1.51154596
H       -1.24106087      -2.09986328       0.95836627
H        1.10731296       0.58080353       1.61452634
H        2.71516924       0.31921404      -0.23936145
H        1.47357822      -0.35096367      -1.29263627
H        1.97909353      -1.24286299       0.14594095
16
Frame=16 idx=011236 GeodesicLength=1.543815417613794 rxn_smarts="[C:1]([C@@:2]([O:3][H:12])([C@@:4]([C:5]([H:14])([H:15])[H:16])([C:6]#[N:7])[H:13])[H:11])([H:8])([H:9])[H:10]>>[C:1]1([H:9])([H:10])[C@:2]([O:3][H:12])([H:11])[C@:4]([C:5]([H:14])([H:15])[H:16])([H:13])[C:6][N:7]1[H:8]"
C       -1.36193839       0.05670477      -0.63699087
C       -0.62971839      -0.27617186       0.66639966
O       -0.40555395      -1.64955606       0.89731410
C        0.72773570       0.45573596       0.59911125
C        1.78155072      -0.24735647      -0.25718734
C        0.45897577       1.80781028       0.01760228
N       -0.59626486       2.05998227      -0.54401760
H       -1.34382068       1.22718891      -1.50960134
H       -2.43287060      -0.13481329      -0.52225606
H       -1.01944697      -0.64834244      -1.40209466
H       -1.19563455       0.13554136       1.51213422
H       -1.25200820      -2.09261520       0.97088773
H        1.10973795       0.57598195       1.61409987
H        2.71285759       0.31875924      -0.24265256
H        1.47036989      -0.34453719      -1.29817161
H        1.97602898      -1.24431224       0.13542293
