13
Frame=0 idx=001003 GeodesicLength=0.0 rxn_smarts="[O:1]([C:2]([C:3]([O:4]/[C:5](=[N:6]/[H:13])[H:12])([H:10])[H:11])([H:8])[H:9])[H:7]>>[O:1]([C@@:2]1([H:8])[C:3]([H:10])([H:11])[O:4][C@:5]1([N:6]([H:7])[H:13])[H:12])[H:9]"
O       -1.62773924       0.32059393      -0.06165335
C       -0.61016575      -0.55483834       0.43001860
C        0.29026103      -1.25155718      -0.57076727
O        1.23688655      -0.23507521      -0.90545025
C        0.93325497       0.65800596       0.10640033
N        0.28088751       1.76718337      -0.22033456
H       -0.73344927       1.45718739      -0.48490450
H       -0.46437588      -0.64579714       1.50597327
H       -1.73180281      -0.95199536       0.30817456
H        0.79029669      -2.11545720      -0.12019838
H       -0.23921877      -1.56382619      -1.47329256
H        1.62016940       0.67760668       0.95015776
H        0.25499551       2.43796935       0.53587639
13
Frame=1 idx=001003 GeodesicLength=0.07022931246893127 rxn_smarts="[O:1]([C:2]([C:3]([O:4]/[C:5](=[N:6]/[H:13])[H:12])([H:10])[H:11])([H:8])[H:9])[H:7]>>[O:1]([C@@:2]1([H:8])[C:3]([H:10])([H:11])[O:4][C@:5]1([N:6]([H:7])[H:13])[H:12])[H:9]"
O       -1.63117269       0.31309291      -0.05324796
C       -0.61065276      -0.55870876       0.43344134
C        0.28899687      -1.25049839      -0.57126563
O        1.25170635      -0.24222547      -0.88405878
C        0.93709782       0.66185383       0.11348208
N        0.28149064       1.76589785      -0.22738563
H       -0.74785383       1.44725050      -0.48327914
H       -0.46331936      -0.65954276       1.50840240
H       -1.74315138      -0.95870546       0.30955185
H        0.77785385      -2.12612164      -0.13183797
H       -0.23736224      -1.54054917      -1.48312015
H        1.62688887       0.69546513       0.95470575
H        0.26947786       2.45279143       0.51461186
13
Frame=2 idx=001003 GeodesicLength=0.14046378283354705 rxn_smarts="[O:1]([C:2]([C:3]([O:4]/[C:5](=[N:6]/[H:13])[H:12])([H:10])[H:11])([H:8])[H:9])[H:7]>>[O:1]([C@@:2]1([H:8])[C:3]([H:10])([H:11])[O:4][C@:5]1([N:6]([H:7])[H:13])[H:12])[H:9]"
O       -1.63465811       0.30549630      -0.04450849
C       -0.61115811      -0.56270309       0.43699563
C        0.28773699      -1.24929848      -0.57178142
O        1.26633706      -0.24958176      -0.86191651
C        0.94092223       0.66571533       0.12075635
N        0.28224757       1.76442214      -0.23452569
H       -0.76241225       1.43718556      -0.48141201
H       -0.46229326      -0.67363299       1.51084624
H       -1.75469459      -0.96555629       0.31079521
H        0.76520874      -2.13658787      -0.14405167
H       -0.23510028      -1.51652199      -1.49272582
H        1.63357347       0.71360703       0.95920250
H        0.28429054       2.46745611       0.49232569
13
Frame=3 idx=001003 GeodesicLength=0.21070239131819393 rxn_smarts="[O:1]([C:2]([C:3]([O:4]/[C:5](=[N:6]/[H:13])[H:12])([H:10])[H:11])([H:8])[H:9])[H:7]>>[O:1]([C@@:2]1([H:8])[C:3]([H:10])([H:11])[O:4][C@:5]1([N:6]([H:7])[H:13])[H:12])[H:9]"
O       -1.63819912       0.29779766      -0.03545628
C       -0.61169005      -0.56682013       0.44067674
C        0.28648716      -1.24795055      -0.57230648
O        1.28073204      -0.25713703      -0.83902786
C        0.94472701       0.66959181       0.12821523
N        0.28316013       1.76275579      -0.24173641
H       -0.77714070       1.42701033      -0.47926987
H       -0.46131509      -0.68805834       1.51329560
H       -1.76644403      -0.97254432       0.31187666
H        0.75239702      -2.14680676      -0.15683376
H       -0.23241298      -1.49176315      -1.50205995
H        1.64024184       0.73201516       0.96360881
H        0.29945678       2.48190954       0.46901755
13
Frame=4 idx=001003 GeodesicLength=0.2809469645766116 rxn_smarts="[O:1]([C:2]([C:3]([O:4]/[C:5](=[N:6]/[H:13])[H:12])([H:10])[H:11])([H:8])[H:9])[H:7]>>[O:1]([C@@:2]1([H:8])[C:3]([H:10])([H:11])[O:4][C@:5]1([N:6]([H:7])[H:13])[H:12])[H:9]"
O       -1.64180086       0.28998947      -0.02611431
C       -0.61225708      -0.57105832       0.44447966
C        0.28525362      -1.24644718      -0.57283246
O        1.29484417      -0.26488141      -0.81540084
C        0.94851148       0.67348500       0.13585051
N        0.28423004       1.76089995      -0.24899856
H       -0.79205643       1.41674385      -0.47681751
H       -0.46040313      -0.70280969       1.51574145
H       -1.77841178      -0.97966621       0.31276782
H        0.73945663      -2.15672862      -0.17017442
H       -0.22928119      -1.46629393      -1.51107349
H        1.64691508       0.75067030       0.96788402
H        0.31499946       2.49609678       0.44468814
13
Frame=5 idx=001003 GeodesicLength=0.3511966580613146 rxn_smarts="[O:1]([C:2]([C:3]([O:4]/[C:5](=[N:6]/[H:13])[H:12])([H:10])[H:11])([H:8])[H:9])[H:7]>>[O:1]([C@@:2]1([H:8])[C:3]([H:10])([H:11])[O:4][C@:5]1([N:6]([H:7])[H:13])[H:12])[H:9]"
O       -1.64546865       0.28206372      -0.01651253
C       -0.61286884      -0.57541442       0.44839731
C        0.28404305      -1.24478179      -0.57334938
O        1.30862125      -0.27279995      -0.79105365
C        0.95227473       0.67739668       0.14365231
N        0.28545690       1.75885917      -0.25628544
H       -0.80717623       1.40640716      -0.47402180
H       -0.45957849      -0.71787224       1.51817326
H       -1.79061022      -0.98691703       0.31343633
H        0.72643525      -2.16629968      -0.18405537
H       -0.22569040      -1.44014817      -1.51971260
H        1.65362134       0.76954788       0.97198002
H        0.33094031       2.50995866       0.41935155
13
Frame=6 idx=001003 GeodesicLength=0.4214542179892332 rxn_smarts="[O:1]([C:2]([C:3]([O:4]/[C:5](=[N:6]/[H:13])[H:12])([H:10])[H:11])([H:8])[H:9])[H:7]>>[O:1]([C@@:2]1([H:8])[C:3]([H:10])([H:11])[O:4][C@:5]1([N:6]([H:7])[H:13])[H:12])[H:9]"
O       -1.64920972       0.27401141      -0.00668270
C       -0.61353522      -0.57988450       0.45242242
C        0.28286251      -1.24294727      -0.57384715
O        1.32201136      -0.28087389      -0.76600969
C        0.95601668       0.68132906       0.15161073
N        0.28684029       1.75664026      -0.26356875
H       -0.82251757       1.39602164      -0.47084944
H       -0.45886287      -0.73323128       1.52058102
H       -1.80305239      -0.99429181       0.31385013
H        0.71338301      -2.17546645      -0.19845315
H       -0.22162782      -1.41336374      -1.52792553
H        1.66039194       0.78862091       0.97584766
H        0.34729979       2.52343568       0.39302444
13
Frame=7 idx=001003 GeodesicLength=0.49172017238575283 rxn_smarts="[O:1]([C:2]([C:3]([O:4]/[C:5](=[N:6]/[H:13])[H:12])([H:10])[H:11])([H:8])[H:9])[H:7]>>[O:1]([C@@:2]1([H:8])[C:3]([H:10])([H:11])[O:4][C@:5]1([N:6]([H:7])[H:13])[H:12])[H:9]"
O       -1.65303174       0.26582336       0.00333729
C       -0.61426686      -0.58446281       0.45654598
C        0.28171934      -1.24093750      -0.57431425
O        1.33495974      -0.28907880      -0.74030367
C        0.95973732       0.68528465       0.15971471
N        0.28837751       1.75425478      -0.27081246
H       -0.83809694       1.38560918      -0.46727275
H       -0.45828002      -0.74886706       1.52295376
H       -1.81575131      -1.00178409       0.31397450
H        0.70035865      -2.18417382      -0.21333490
H       -0.21708687      -1.38599082      -1.53565785
H        1.66726552       0.80785701       0.97943122
H        0.36409566       2.53646591       0.36573842
13
Frame=8 idx=001003 GeodesicLength=0.5620331017734709 rxn_smarts="[O:1]([C:2]([C:3]([O:4]/[C:5](=[N:6]/[H:13])[H:12])([H:10])[H:11])([H:8])[H:9])[H:7]>>[O:1]([C@@:2]1([H:8])[C:3]([H:10])([H:11])[O:4][C@:5]1([N:6]([H:7])[H:13])[H:12])[H:9]"
O       -1.65695390       0.25749330       0.01350887
C       -0.61507996      -0.58914564       0.46075910
C        0.28062409      -1.23875580      -0.57474059
O        1.34742296      -0.29738846      -0.71398329
C        0.96344430       0.68927190       0.16794986
N        0.29006906       1.75173303      -0.27797582
H       -0.85393231       1.37520008      -0.46327144
H       -0.45786177      -0.76476233       1.52528182
H       -1.82873335      -1.00939308       0.31377742
H        0.68742798      -2.19238346      -0.22866026
H       -0.21206327      -1.35809810      -1.54285819
H        1.67429676       0.82722662       0.98266708
H        0.38133941       2.54900194       0.33754545
13
Frame=9 idx=001003 GeodesicLength=0.632311905673991 rxn_smarts="[O:1]([C:2]([C:3]([O:4]/[C:5](=[N:6]/[H:13])[H:12])([H:10])[H:11])([H:8])[H:9])[H:7]>>[O:1]([C@@:2]1([H:8])[C:3]([H:10])([H:11])[O:4][C@:5]1([N:6]([H:7])[H:13])[H:12])[H:9]"
O       -1.66096360       0.24900894       0.02378439
C       -0.61597319      -0.59391642       0.46505174
C        0.27957810      -1.23637466      -0.57510868
O        1.35932521      -0.30576304      -0.68709168
C        0.96712469       0.69327993       0.17631083
N        0.29190412       1.74906369      -0.28501974
H       -0.87003292       1.36479381      -0.45883114
H       -0.45761584      -0.78088779       1.52755574
H       -1.84198369      -1.01709186       0.31322179
H        0.67465302      -2.20000709      -0.24437885
H       -0.20656422      -1.32972099      -1.54947433
H        1.68151092       0.84667251       0.98550364
H        0.39903740       2.56094296       0.30847628
13
Frame=10 idx=001003 GeodesicLength=0.7026748356392634 rxn_smarts="[O:1]([C:2]([C:3]([O:4]/[C:5](=[N:6]/[H:13])[H:12])([H:10])[H:11])([H:8])[H:9])[H:7]>>[O:1]([C@@:2]1([H:8])[C:3]([H:10])([H:11])[O:4][C@:5]1([N:6]([H:7])[H:13])[H:12])[H:9]"
O       -1.66510300       0.24037690       0.03410543
C       -0.61697871      -0.59877174       0.46940689
C        0.27860002      -1.23382991      -0.57540372
O        1.37064031      -0.31415461      -0.65974585
C        0.97080831       0.69733104       0.18477149
N        0.29389370       1.74633562      -0.29186724
H       -0.88641038       1.35444695      -0.45396909
H       -0.45759807      -0.79720838       1.52975969
H       -1.85556400      -1.02488531       0.31226554
H        0.66215176      -2.20704768      -0.26041748
H       -0.20062295      -1.30102823      -1.55543551
H        1.68901885       0.86614689       0.98784659
H        0.41716416       2.57228847       0.27868328
13
Frame=11 idx=001003 GeodesicLength=0.7728627213951897 rxn_smarts="[O:1]([C:2]([C:3]([O:4]/[C:5](=[N:6]/[H:13])[H:12])([H:10])[H:11])([H:8])[H:9])[H:7]>>[O:1]([C@@:2]1([H:8])[C:3]([H:10])([H:11])[O:4][C@:5]1([N:6]([H:7])[H:13])[H:12])[H:9]"
O       -1.66930279       0.23154935       0.04441232
C       -0.61806067      -0.60366284       0.47380605
C        0.27766546      -1.23104765      -0.57561236
O        1.38123353      -0.32251750      -0.63196126
C        0.97444359       0.70140452       0.19333510
N        0.29599503       1.74346349      -0.29846577
H       -0.90306102       1.34406794      -0.44867033
H       -0.45776808      -0.81363908       1.53186938
H       -1.86937444      -1.03272778       0.31086173
H        0.64991705      -2.21332730      -0.27670461
H       -0.19424916      -1.27201528      -1.56071949
H        1.69679201       0.88560887       0.98965652
H        0.43576951       2.58284327       0.24819273
13
Frame=12 idx=001003 GeodesicLength=0.8431706331575242 rxn_smarts="[O:1]([C:2]([C:3]([O:4]/[C:5](=[N:6]/[H:13])[H:12])([H:10])[H:11])([H:8])[H:9])[H:7]>>[O:1]([C@@:2]1([H:8])[C:3]([H:10])([H:11])[O:4][C@:5]1([N:6]([H:7])[H:13])[H:12])[H:9]"
O       -1.67367083       0.22255048       0.05470602
C       -0.61927606      -0.60862983       0.47826062
C        0.27681339      -1.22808819      -0.57572762
O        1.39117925      -0.33081914      -0.60382258
C        0.97808197       0.70553214       0.20200032
N        0.29823220       1.74059236      -0.30478124
H       -0.92003761       1.33376849      -0.44294411
H       -0.45821285      -0.83026370       1.53390304
H       -1.88354371      -1.04066442       0.30900794
H        0.63807722      -2.21895982      -0.29321237
H       -0.18745281      -1.24277781      -1.56529453
H        1.70495085       0.90502634       0.99087516
H        0.45485898       2.59273310       0.21702936
13
Frame=13 idx=001003 GeodesicLength=0.913494256723351 rxn_smarts="[O:1]([C:2]([C:3]([O:4]/[C:5](=[N:6]/[H:13])[H:12])([H:10])[H:11])([H:8])[H:9])[H:7]>>[O:1]([C@@:2]1([H:8])[C:3]([H:10])([H:11])[O:4][C@:5]1([N:6]([H:7])[H:13])[H:12])[H:9]"
O       -1.67818162       0.21336266       0.06494430
C       -0.62061334      -0.61364295       0.48275904
C        0.27603608      -1.22492119      -0.57573483
O        1.40041105      -0.33901004      -0.57538654
C        0.98170688       0.70971093       0.21077128
N        0.30058917       1.73771681      -0.31075635
H       -0.93733831       1.32350507      -0.43682265
H       -0.45892358      -0.84703003       1.53584506
H       -1.89803676      -1.04866444       0.30666341
H        0.62667343      -2.22386171      -0.30987574
H       -0.18027576      -1.21337189      -1.56912747
H        1.71352611       0.92435389       0.99145084
H        0.47442664       2.60185290       0.18526964
13
Frame=14 idx=001003 GeodesicLength=0.9838335846251518 rxn_smarts="[O:1]([C:2]([C:3]([O:4]/[C:5](=[N:6]/[H:13])[H:12])([H:10])[H:11])([H:8])[H:9])[H:7]>>[O:1]([C@@:2]1([H:8])[C:3]([H:10])([H:11])[O:4][C@:5]1([N:6]([H:7])[H:13])[H:12])[H:9]"
O       -1.68284559       0.20397604       0.07509922
C       -0.62207695      -0.61869018       0.48729670
C        0.27533659      -1.22153891      -0.57562244
O        1.40890440      -0.34704173      -0.54671928
C        0.98531866       0.71394971       0.21965318
N        0.30305748       1.73487539      -0.31633425
H       -0.95497919       1.31326606      -0.43034048
H       -0.45991231      -0.86392252       1.53768842
H       -1.91285837      -1.05672011       0.30380177
H        0.61576331      -2.22800516      -0.32663564
H       -0.17275445      -1.18386085      -1.57219474
H        1.72256648       0.94354853       0.99133476
H        0.49447994       2.61016372       0.15297277
13
Frame=15 idx=001003 GeodesicLength=1.054189848793055 rxn_smarts="[O:1]([C:2]([C:3]([O:4]/[C:5](=[N:6]/[H:13])[H:12])([H:10])[H:11])([H:8])[H:9])[H:7]>>[O:1]([C@@:2]1([H:8])[C:3]([H:10])([H:11])[O:4][C@:5]1([N:6]([H:7])[H:13])[H:12])[H:9]"
O       -1.68767366       0.19438098       0.08515054
C       -0.62366966      -0.62376041       0.49187176
C        0.27471750      -1.21793228      -0.57538008
O        1.41664407      -0.35486604      -0.51788358
C        0.98891740       0.71825835       0.22865625
N        0.30562817       1.73210955      -0.32145865
H       -0.97297907       1.30303408      -0.42353988
H       -0.46118715      -0.88093148       1.53942799
H       -1.92801202      -1.06482469       0.30040026
H        0.60539929      -2.23136864      -0.34343686
H       -0.16492923      -1.15429836      -1.57447969
H        1.73211498       0.96256709       0.99048597
H        0.51502940       2.61763185       0.12018598
13
Frame=16 idx=001003 GeodesicLength=1.1245638771567614 rxn_smarts="[O:1]([C:2]([C:3]([O:4]/[C:5](=[N:6]/[H:13])[H:12])([H:10])[H:11])([H:8])[H:9])[H:7]>>[O:1]([C@@:2]1([H:8])[C:3]([H:10])([H:11])[O:4][C@:5]1([N:6]([H:7])[H:13])[H:12])[H:9]"
O       -1.69267611       0.18456727       0.09508640
C       -0.62539220      -0.62884341       0.49648501
C        0.27418046      -1.21409030      -0.57499861
O        1.42362260      -0.36243558      -0.48893669
C        0.99250241       0.72264802       0.23779653
N        0.30829217       1.72946216      -0.32607311
H       -0.99135945       1.29278533      -0.41646844
H       -0.46275162      -0.89805248       1.54105937
H       -1.94349892      -1.07297254       0.29643893
H        0.59562723      -2.23393520      -0.36023052
H       -0.15684368      -1.12472704      -1.57597157
H        1.74220688       0.98136760       0.98887246
H        0.53609023       2.62422617       0.08694025
