16
Frame=0 idx=006876 GeodesicLength=0.0 rxn_smarts="[C:1]([N:2]1[C:3]([H:11])([H:12])[C@:4]1([C:5](=[O:6])[C:7]([H:14])([H:15])[H:16])[H:13])([H:8])([H:9])[H:10]>>[C:1]([N:2]1[C:3]([H:11])([H:12])[C@:4]1([C:7]([C:5](=[O:6])[H:15])([H:14])[H:16])[H:13])([H:8])([H:9])[H:10]"
C        1.30153858       0.21764757      -1.64185344
N        0.91187091       0.22823764      -0.24589749
C        1.09475823      -0.98555714       0.53898616
C       -0.23564743      -0.51261121       0.12455909
C       -1.29465312       0.03670283       1.27248294
O       -1.94008545      -0.90093939       1.82027315
C       -1.79358117       1.19033628       0.61250784
H        2.35218267       0.49690099      -1.72500782
H        0.70683348       0.95367317      -2.18608307
H        1.16190615      -0.76292009      -2.11697641
H        1.49128841      -1.86154759       0.03282964
H        1.42431008      -0.84959408       1.56194729
H       -0.79175817      -1.07491374      -0.61685687
H       -2.85521999       1.40381628       0.51178762
H       -0.45878256       0.53824569       1.86815906
H       -1.07496057       1.88252285       0.18914232
16
Frame=1 idx=006876 GeodesicLength=0.10631424955339663 rxn_smarts="[C:1]([N:2]1[C:3]([H:11])([H:12])[C@:4]1([C:5](=[O:6])[C:7]([H:14])([H:15])[H:16])[H:13])([H:8])([H:9])[H:10]>>[C:1]([N:2]1[C:3]([H:11])([H:12])[C@:4]1([C:7]([C:5](=[O:6])[H:15])([H:14])[H:16])[H:13])([H:8])([H:9])[H:10]"
C        1.29927952       0.20990799      -1.65502804
N        0.90766210       0.23734582      -0.25992473
C        1.09537455      -0.96536833       0.53845486
C       -0.23905887      -0.50411088       0.11844792
C       -1.31435904       0.00690846       1.28396942
O       -1.98679203      -0.92210420       1.80097649
C       -1.76481560       1.18229499       0.62360069
H        2.34933223       0.49100963      -1.74004417
H        0.70347393       0.93692693      -2.20993836
H        1.16357128      -0.77741978      -2.11734188
H        1.49719185      -1.84502164       0.04287030
H        1.42959690      -0.81369805       1.55780145
H       -0.78435820      -1.07894821      -0.62202839
H       -2.82296277       1.40356578       0.50339182
H       -0.48934313       0.54348425       1.89305525
H       -1.04379272       1.89522724       0.24173737
16
Frame=2 idx=006876 GeodesicLength=0.21267161512733385 rxn_smarts="[C:1]([N:2]1[C:3]([H:11])([H:12])[C@:4]1([C:5](=[O:6])[C:7]([H:14])([H:15])[H:16])[H:13])([H:8])([H:9])[H:10]>>[C:1]([N:2]1[C:3]([H:11])([H:12])[C@:4]1([C:7]([C:5](=[O:6])[H:15])([H:14])[H:16])[H:13])([H:8])([H:9])[H:10]"
C        1.29739564       0.20171701      -1.66853580
N        0.90351965       0.24670517      -0.27460275
C        1.09612650      -0.94429472       0.53782608
C       -0.24232962      -0.49524340       0.11213196
C       -1.33379260      -0.02271227       1.29455260
O       -2.03467858      -0.94150525       1.77884205
C       -1.73582945       1.17388564       0.63642128
H        2.34683171       0.48472871      -1.75541636
H        0.70051902       0.91920041      -2.23448230
H        1.16577130      -0.79244968      -2.11741015
H        1.50335564      -1.82769026       0.05338335
H        1.43443251      -0.77645148       1.55340140
H       -0.77659954      -1.08266337      -0.62717021
H       -2.78996531       1.40435734       0.49826216
H       -0.52062221       0.54706108       1.91899462
H       -1.01413468       1.90535507       0.29380205
16
Frame=3 idx=006876 GeodesicLength=0.31907228119232894 rxn_smarts="[C:1]([N:2]1[C:3]([H:11])([H:12])[C@:4]1([C:5](=[O:6])[C:7]([H:14])([H:15])[H:16])[H:13])([H:8])([H:9])[H:10]>>[C:1]([N:2]1[C:3]([H:11])([H:12])[C@:4]1([C:7]([C:5](=[O:6])[H:15])([H:14])[H:16])[H:13])([H:8])([H:9])[H:10]"
C        1.29583322       0.19308819      -1.68234957
N        0.89938663       0.25629062      -0.28993210
C        1.09699372      -0.92233829       0.53706656
C       -0.24548862      -0.48606825       0.10559658
C       -1.35302464      -0.05222317       1.30420430
O       -2.08352387      -0.95890695       1.75405381
C       -1.70665634       1.16505533       0.65095986
H        2.34461666       0.47810971      -1.77109979
H        0.69789640       0.90047693      -2.25965919
H        1.16848426      -0.80797032      -2.11715683
H        1.50978904      -1.80951612       0.06433445
H        1.43873165      -0.73787945       1.54872295
H       -0.76851864      -1.08613329      -0.63226354
H       -2.75629582       1.40596945       0.49611942
H       -0.55257869       0.54897024       1.94592339
H       -0.98564496       1.91307536       0.34547971
16
Frame=4 idx=006876 GeodesicLength=0.42552000319999256 rxn_smarts="[C:1]([N:2]1[C:3]([H:11])([H:12])[C@:4]1([C:5](=[O:6])[C:7]([H:14])([H:15])[H:16])[H:13])([H:8])([H:9])[H:10]>>[C:1]([N:2]1[C:3]([H:11])([H:12])[C@:4]1([C:7]([C:5](=[O:6])[H:15])([H:14])[H:16])[H:13])([H:8])([H:9])[H:10]"
C        1.29454758       0.18404369      -1.69643293
N        0.89520630       0.26607429      -0.30590617
C        1.09794836      -0.89950999       0.53613996
C       -0.24856726      -0.47664904       0.09881999
C       -1.37212400      -0.08167533       1.31288732
O       -2.13309041      -0.97407764       1.72683727
C       -1.67732656       1.15572919       0.66717240
H        2.34263190       0.47121162      -1.78705396
H        0.69554808       0.88075391      -2.28540021
H        1.17169851      -0.82392824      -2.11655755
H        1.51649595      -1.79046562       0.07568121
H        1.44239606      -0.69802426       1.54374218
H       -0.76014830      -1.08943717      -0.63729747
H       -2.72199801       1.40821997       0.49673795
H       -0.58518558       0.54924069       1.97375034
H       -0.95803261       1.91849393       0.39687967
16
Frame=5 idx=006876 GeodesicLength=0.5320211753942388 rxn_smarts="[C:1]([N:2]1[C:3]([H:11])([H:12])[C@:4]1([C:5](=[O:6])[C:7]([H:14])([H:15])[H:16])[H:13])([H:8])([H:9])[H:10]>>[C:1]([N:2]1[C:3]([H:11])([H:12])[C@:4]1([C:7]([C:5](=[O:6])[H:15])([H:14])[H:16])[H:13])([H:8])([H:9])[H:10]"
C        1.29350276       0.17461438      -1.71074324
N        0.89092429       0.27602782      -0.32251057
C        1.09895486      -0.87583087       0.53500940
C       -0.25159910      -0.46705044       0.09177663
C       -1.39115563      -0.11110271       1.32056228
O       -2.18313121      -0.98680525       1.69745588
C       -1.64786619       1.14581944       0.68499174
H        2.34083156       0.46410173      -1.80322750
H        0.69342985       0.86004210      -2.31163000
H        1.17541169      -0.84025909      -2.11558974
H        1.52347066      -1.77051302       0.08737501
H        1.44531987      -0.65694635       1.53843883
H       -0.75151986      -1.09265351      -0.64226858
H       -2.68709872       1.41095226       0.49993232
H       -0.61842458       0.54793393       2.00235779
H       -0.93105025       1.92166959       0.44806975
16
Frame=6 idx=006876 GeodesicLength=0.6385884322726737 rxn_smarts="[C:1]([N:2]1[C:3]([H:11])([H:12])[C@:4]1([C:5](=[O:6])[C:7]([H:14])([H:15])[H:16])[H:13])([H:8])([H:9])[H:10]>>[C:1]([N:2]1[C:3]([H:11])([H:12])[C@:4]1([C:7]([C:5](=[O:6])[H:15])([H:14])[H:16])[H:13])([H:8])([H:9])[H:10]"
C        1.29267004       0.16484307      -1.72522573
N        0.88649264       0.28611790      -0.33971689
C        1.09997219      -0.85134125       0.53363463
C       -0.25461728      -0.45733900       0.08444127
C       -1.41017596      -0.14051693       1.32719487
O       -2.23338464      -0.99689193       1.66622207
C       -1.61830095       1.13522422       0.70431806
H        2.33917872       0.45685146      -1.81955397
H        0.69151188       0.83837809      -2.33825071
H        1.17962077      -0.85687902      -2.11423407
H        1.53069506      -1.74964793       0.09935117
H        1.44739522      -0.61474223       1.53279204
H       -0.74266324      -1.09585745      -0.64717471
H       -2.65162033       1.41401343       0.50553870
H       -0.65227784       0.54516069       2.03159970
H       -0.90449629       1.92262687       0.49906357
16
Frame=7 idx=006876 GeodesicLength=0.7452357277255999 rxn_smarts="[C:1]([N:2]1[C:3]([H:11])([H:12])[C@:4]1([C:5](=[O:6])[C:7]([H:14])([H:15])[H:16])[H:13])([H:8])([H:9])[H:10]>>[C:1]([N:2]1[C:3]([H:11])([H:12])[C@:4]1([C:7]([C:5](=[O:6])[H:15])([H:14])[H:16])[H:13])([H:8])([H:9])[H:10]"
C        1.29202777       0.15478596      -1.73981593
N        0.88187323       0.29630815      -0.35748097
C        1.10095520      -0.82610411       0.53197513
C       -0.25765330      -0.44758086       0.07679282
C       -1.42923053      -0.16990458       1.33276296
O       -2.28358058      -1.00417107       1.63349638
C       -1.58865766       1.12383470       0.72502550
H        2.33764603       0.44953766      -1.83595536
H        0.68977863       0.81582751      -2.36514689
H        1.18431943      -0.87368631      -2.11247752
H        1.53813508      -1.72788224       0.11153003
H        1.44851960      -0.57154943       1.52678512
H       -0.73360952      -1.09911512      -0.65201490
H       -2.61558571       1.41724501       0.51340084
H       -0.68672441       0.54108559       2.06130820
H       -0.87821325       1.92136915       0.54981460
16
Frame=8 idx=006876 GeodesicLength=0.8519900045589932 rxn_smarts="[C:1]([N:2]1[C:3]([H:11])([H:12])[C@:4]1([C:5](=[O:6])[C:7]([H:14])([H:15])[H:16])[H:13])([H:8])([H:9])[H:10]>>[C:1]([N:2]1[C:3]([H:11])([H:12])[C@:4]1([C:7]([C:5](=[O:6])[H:15])([H:14])[H:16])[H:13])([H:8])([H:9])[H:10]"
C        1.29156215       0.14451608      -1.75443702
N        0.87704340       0.30655613      -0.37573734
C        1.10186049      -0.80021568       0.52998741
C       -0.26073448      -0.43784402       0.06881920
C       -1.44835414      -0.19922814       1.33726828
O       -2.33344048      -1.00850751       1.59969944
C       -1.55897150       1.11153878       0.74695610
H        2.33621981       0.44223951      -1.85234187
H        0.68822937       0.79249897      -2.39217386
H        1.18949104      -0.89055657      -2.11031859
H        1.54574300      -1.70526236       0.12380631
H        1.44860762      -0.52756391       1.52040207
H       -0.72439205      -1.10248338      -0.65678427
H       -2.57903193       1.42046812       0.52334418
H       -0.72173793       0.53594562       2.09129878
H       -0.85209437       1.91789836       0.60021119
16
Frame=9 idx=006876 GeodesicLength=0.958853691209981 rxn_smarts="[C:1]([N:2]1[C:3]([H:11])([H:12])[C@:4]1([C:5](=[O:6])[C:7]([H:14])([H:15])[H:16])[H:13])([H:8])([H:9])[H:10]>>[C:1]([N:2]1[C:3]([H:11])([H:12])[C@:4]1([C:7]([C:5](=[O:6])[H:15])([H:14])[H:16])[H:13])([H:8])([H:9])[H:10]"
C        1.29125240       0.13411864      -1.76900112
N        0.87198507       0.31681600      -0.39439727
C        1.10263094      -0.77379243       0.52763952
C       -0.26388371      -0.42818584       0.06052309
C       -1.46755522      -0.22842756       1.34073612
O       -2.38266631      -1.00982053       1.56525184
C       -1.52926703       1.09822362       0.76994393
H        2.33487005       0.43504406      -1.86861208
H        0.68685965       0.76851614      -2.41917508
H        1.19511344      -0.90734644      -2.10775671
H        1.55343907      -1.68185026       0.13607000
H        1.44757446      -0.48302442       1.51364498
H       -0.71504286      -1.10598324      -0.66147926
H       -2.54198036       1.42348025       0.53516102
H       -0.75726340       0.53001524       2.12138137
H       -0.82606617       1.91221676       0.65006965
16
Frame=10 idx=006876 GeodesicLength=1.0658573122638006 rxn_smarts="[C:1]([N:2]1[C:3]([H:11])([H:12])[C@:4]1([C:5](=[O:6])[C:7]([H:14])([H:15])[H:16])[H:13])([H:8])([H:9])[H:10]>>[C:1]([N:2]1[C:3]([H:11])([H:12])[C@:4]1([C:7]([C:5](=[O:6])[H:15])([H:14])[H:16])[H:13])([H:8])([H:9])[H:10]"
C        1.29109859       0.12369817      -1.78341567
N        0.86671574       0.32703863      -0.41335346
C        1.10324156      -0.74700159       0.52489353
C       -0.26711284      -0.41867450       0.05191677
C       -1.48684617      -0.25742244       1.34322123
O       -2.43099644      -1.00808096       1.53066173
C       -1.49960084       1.08378804       0.79377296
H        2.33360882       0.42804123      -1.88466152
H        0.68568857       0.74407198      -2.44596698
H        1.20114725      -0.92390115      -2.10481812
H        1.56115750      -1.65777851       0.14817700
H        1.44540279      -0.43824217       1.50651296
H       -0.70560195      -1.10964748      -0.66608948
H       -2.50450980       1.42607553       0.54864587
H       -0.79327183       0.52368263       2.15134709
H       -0.80012093       1.90435259       0.69915608
16
Frame=11 idx=006876 GeodesicLength=1.1730194195064567 rxn_smarts="[C:1]([N:2]1[C:3]([H:11])([H:12])[C@:4]1([C:5](=[O:6])[C:7]([H:14])([H:15])[H:16])[H:13])([H:8])([H:9])[H:10]>>[C:1]([N:2]1[C:3]([H:11])([H:12])[C@:4]1([C:7]([C:5](=[O:6])[H:15])([H:14])[H:16])[H:13])([H:8])([H:9])[H:10]"
C        1.29109094       0.11336859      -1.79758189
N        0.86125989       0.33717069      -0.43247514
C        1.10366219      -0.72003042       0.52172545
C       -0.27042441      -0.40936859       0.04303207
C       -1.50621577      -0.28612416       1.34480989
O       -2.47816388      -1.00331589       1.49641836
C       -1.47001926       1.06813745       0.81822506
H        2.33242910       0.42132361      -1.90038131
H        0.68472572       0.71937559      -2.47235602
H        1.20754186      -0.94005182      -2.10153697
H        1.56880952      -1.63319841       0.15997829
H        1.44209134      -0.39356638       1.49902457
H       -0.69610487      -1.11347298      -0.67060399
H       -2.46668442       1.42802112       0.56353384
H       -0.82971535       0.51737472       2.18099802
H       -0.77428259       1.89435688       0.74718978
16
Frame=12 idx=006876 GeodesicLength=1.2803497127967967 rxn_smarts="[C:1]([N:2]1[C:3]([H:11])([H:12])[C@:4]1([C:5](=[O:6])[C:7]([H:14])([H:15])[H:16])[H:13])([H:8])([H:9])[H:10]>>[C:1]([N:2]1[C:3]([H:11])([H:12])[C@:4]1([C:7]([C:5](=[O:6])[H:15])([H:14])[H:16])[H:13])([H:8])([H:9])[H:10]"
C        1.29122214       0.10325154      -1.81140114
N        0.85566144       0.34715933      -0.45161584
C        1.10387922      -0.69309296       0.51811974
C       -0.27380978      -0.40032170       0.03391750
C       -1.52564177      -0.31443933       1.34561891
O       -2.52391900      -0.99562316       1.46301306
C       -1.44057948       1.05119658       0.84307558
H        2.33133296       0.41497431      -1.91566555
H        0.68398557       0.69467274      -2.49814144
H        1.21422818      -0.95562791      -2.09796437
H        1.57630615      -1.60830252       0.17131630
H        1.43768514      -0.34938383       1.49120943
H       -0.68658972      -1.11743672      -0.67501005
H       -2.42858865       1.42907650       0.57952225
H       -0.86655039       0.51157783       2.21013865
H       -0.74862201       1.88231931       0.79386699
16
Frame=13 idx=006876 GeodesicLength=1.387860753064082 rxn_smarts="[C:1]([N:2]1[C:3]([H:11])([H:12])[C@:4]1([C:5](=[O:6])[C:7]([H:14])([H:15])[H:16])[H:13])([H:8])([H:9])[H:10]>>[C:1]([N:2]1[C:3]([H:11])([H:12])[C@:4]1([C:7]([C:5](=[O:6])[H:15])([H:14])[H:16])[H:13])([H:8])([H:9])[H:10]"
C        1.29148480       0.09347304      -1.82478251
N        0.84997967       0.35695389      -0.47061896
C        1.10389557      -0.66642002       0.51407472
C       -0.27725041      -0.39158398       0.02463589
C       -1.54509623      -0.34228416       1.34579171
O       -2.56804057      -0.98516690       1.43092203
C       -1.41134124       1.03290993       0.86810168
H        2.33032824       0.40906818      -1.93041682
H        0.68348203       0.67023662      -2.52312946
H        1.22111940      -0.97046265      -2.09417143
H        1.58356323      -1.58331384       0.18203610
H        1.43227421      -0.30609887       1.48311463
H       -0.67709706      -1.12150153      -0.67929679
H       -2.39031514       1.42900199       0.59627002
H       -0.90374480       0.50681915       2.23858810
H       -0.72324170       1.86836917       0.83888109
16
Frame=14 idx=006876 GeodesicLength=1.4955526186660653 rxn_smarts="[C:1]([N:2]1[C:3]([H:11])([H:12])[C@:4]1([C:5](=[O:6])[C:7]([H:14])([H:15])[H:16])[H:13])([H:8])([H:9])[H:10]>>[C:1]([N:2]1[C:3]([H:11])([H:12])[C@:4]1([C:7]([C:5](=[O:6])[H:15])([H:14])[H:16])[H:13])([H:8])([H:9])[H:10]"
C        1.29186877       0.08415158      -1.83764755
N        0.84428127       0.36651066      -0.48932983
C        1.10373057      -0.64023929       0.50960129
C       -0.28071897      -0.38319658       0.01526051
C       -1.56454900      -0.36958956       1.34548476
O       -2.61034672      -0.97217365       1.40056237
C       -1.38236120       1.01324435       0.89310733
H        2.32942199       0.40366639      -1.94455281
H        0.68322155       0.64634030      -2.54714686
H        1.22812135      -0.98440991      -2.09023830
H        1.59051010      -1.55846719       0.19199717
H        1.42598579      -0.26409894       1.47479786
H       -0.66766505      -1.12561643      -0.68345569
H       -2.35195384       1.42757852       0.61342522
H       -0.94128418       0.50363495       2.26617532
H       -0.69826246       1.85266480       0.88195921
16
Frame=15 idx=006876 GeodesicLength=1.603424060428797 rxn_smarts="[C:1]([N:2]1[C:3]([H:11])([H:12])[C@:4]1([C:5](=[O:6])[C:7]([H:14])([H:15])[H:16])[H:13])([H:8])([H:9])[H:10]>>[C:1]([N:2]1[C:3]([H:11])([H:12])[C@:4]1([C:7]([C:5](=[O:6])[H:15])([H:14])[H:16])[H:13])([H:8])([H:9])[H:10]"
C        1.29236127       0.07539668      -1.84993484
N        0.83863610       0.37579343      -0.50760116
C        1.10341781      -0.61476706       0.50472414
C       -0.28418191      -0.37519533       0.00587063
C       -1.58397128      -0.39631060       1.34486188
O       -2.65070053      -0.95691523       1.37229295
C       -1.35368735       0.99218413       0.91792902
H        2.32862126       0.39881732      -1.95800806
H        0.68320458       0.62325352      -2.57004862
H        1.23513204      -0.99734525      -2.08625696
H        1.59709240      -1.53399847       0.20107961
H        1.41897578      -0.22373911       1.46632936
H       -0.65832970      -1.12972682      -0.68748282
H       -2.31358250       1.42460939       0.63063065
H       -0.97917735       0.50255907       2.29273884
H       -0.67381062       1.83538433       0.92287537
16
Frame=16 idx=006876 GeodesicLength=1.7114655237077123 rxn_smarts="[C:1]([N:2]1[C:3]([H:11])([H:12])[C@:4]1([C:5](=[O:6])[C:7]([H:14])([H:15])[H:16])[H:13])([H:8])([H:9])[H:10]>>[C:1]([N:2]1[C:3]([H:11])([H:12])[C@:4]1([C:7]([C:5](=[O:6])[H:15])([H:14])[H:16])[H:13])([H:8])([H:9])[H:10]"
C        1.29294474       0.06730021      -1.86160100
N        0.83310876       0.38477660      -0.52530251
C        1.10300243      -0.59019129       0.49947814
C       -0.28760253      -0.36760708      -0.00345228
C       -1.60334007      -0.42242786       1.34408171
O       -2.68901452      -0.93969346       1.34638098
C       -1.32535457       0.96972736       0.94245566
H        2.32792774       0.39455471      -1.97073722
H        0.68341949       0.60121796      -2.59172473
H        1.24205250      -1.00917644      -2.08231866
H        1.60327762      -1.51012599       0.20919111
H        1.41141599      -0.18531589       1.45778321
H       -0.64912145      -1.13377681      -0.69137720
H       -2.27525748       1.41993272       0.64755514
H       -1.01745495       0.50409683       2.31811489
H       -0.65000370       1.81670844       0.96147275
