17
Frame=0 idx=011426 GeodesicLength=0.0 rxn_smarts="[C:1]1([H:8])([H:9])[C:2]([H:10])([H:11])[C:3]1([C@@:4]1([H:13])[C:5]([H:14])([H:15])[C:6]([H:16])([H:17])[O:7]1)[H:12]>>[C:1]([C:2]([H:10])([H:11])[H:12])([C:3][C@@:4]1([H:13])[C:5]([H:14])([H:15])[C:6]([H:16])([H:17])[O:7]1)([H:8])[H:9]"
C       -1.69694423      -0.29743806       1.16175692
C       -1.77592961       0.59076324      -0.07391987
C       -0.90745219      -1.03080663       0.15909484
C        0.54896106      -0.75023246       0.21808140
C        1.36010363      -0.45444497      -1.04962078
C        1.95789814       0.69444513      -0.23474649
O        1.03573040       0.47772667       0.84095257
H       -1.16401616       0.18321522       1.97896389
H       -2.64123568      -0.73631290       1.46807849
H       -2.77504331       0.69767755      -0.48410263
H       -1.19002943       1.49851293      -0.00769417
H       -1.32774724      -0.11762013      -0.90897572
H        0.93284908      -1.61896461       0.77352674
H        2.04213559      -1.23406402      -1.38116496
H        0.74313940      -0.13491793      -1.88938053
H        2.99175360       0.53426119       0.08642003
H        1.86582691       1.69819977      -0.65726972
17
Frame=1 idx=011426 GeodesicLength=0.05705402458989815 rxn_smarts="[C:1]1([H:8])([H:9])[C:2]([H:10])([H:11])[C:3]1([C@@:4]1([H:13])[C:5]([H:14])([H:15])[C:6]([H:16])([H:17])[O:7]1)[H:12]>>[C:1]([C:2]([H:10])([H:11])[H:12])([C:3][C@@:4]1([H:13])[C:5]([H:14])([H:15])[C:6]([H:16])([H:17])[O:7]1)([H:8])[H:9]"
C       -1.69667061      -0.29471207       1.16221173
C       -1.78161153       0.59106514      -0.07482686
C       -0.90440361      -1.02351570       0.15798679
C        0.55177979      -0.74989080       0.21662044
C        1.36617606      -0.45413304      -1.04919979
C        1.96192992       0.69455178      -0.23247367
O        1.03965359       0.47498075       0.84264258
H       -1.16466997       0.18824283       1.97858720
H       -2.63787108      -0.74065452       1.46783717
H       -2.78673947       0.71315234      -0.46542359
H       -1.18824398       1.49485779      -0.01738317
H       -1.35589432      -0.13869480      -0.92350112
H        0.93173558      -1.62172589       0.77071409
H        2.04929145      -1.23372880      -1.37855432
H        0.75194924      -0.13443498      -1.89074217
H        2.99587758       0.53594854       0.08908399
H        1.86771137       1.69869142      -0.65357930
17
Frame=2 idx=011426 GeodesicLength=0.11407076487873564 rxn_smarts="[C:1]1([H:8])([H:9])[C:2]([H:10])([H:11])[C:3]1([C@@:4]1([H:13])[C:5]([H:14])([H:15])[C:6]([H:16])([H:17])[O:7]1)[H:12]>>[C:1]([C:2]([H:10])([H:11])[H:12])([C:3][C@@:4]1([H:13])[C:5]([H:14])([H:15])[C:6]([H:16])([H:17])[O:7]1)([H:8])[H:9]"
C       -1.69633959      -0.29184275       1.16260161
C       -1.78724576       0.59131618      -0.07594768
C       -0.90131691      -1.01609244       0.15679016
C        0.55465365      -0.74956276       0.21517334
C        1.37215667      -0.45360005      -1.04880303
C        1.96602535       0.69466611      -0.23004636
O        1.04369008       0.47210881       0.84449616
H       -1.16529818       0.19354775       1.97807511
H       -2.63441325      -0.74478887       1.46755215
H       -2.79772104       0.72867779      -0.44699495
H       -1.18641448       1.49101003      -0.02756991
H       -1.38496062      -0.16094185      -0.93712871
H        0.93060126      -1.62462841       0.76770104
H        2.05626674      -1.23313721      -1.37621754
H        0.76053970      -0.13350915      -1.89194299
H        3.00007409       0.53750564       0.09179857
H        1.86970228       1.69927120      -0.64953696
17
Frame=3 idx=011426 GeodesicLength=0.17106802501727253 rxn_smarts="[C:1]1([H:8])([H:9])[C:2]([H:10])([H:11])[C:3]1([C@@:4]1([H:13])[C:5]([H:14])([H:15])[C:6]([H:16])([H:17])[O:7]1)[H:12]>>[C:1]([C:2]([H:10])([H:11])[H:12])([C:3][C@@:4]1([H:13])[C:5]([H:14])([H:15])[C:6]([H:16])([H:17])[O:7]1)([H:8])[H:9]"
C       -1.69595062      -0.28883945       1.16291469
C       -1.79285184       0.59153989      -0.07726762
C       -0.89820174      -1.00851349       0.15545832
C        0.55757288      -0.74923618       0.21372053
C        1.37806982      -0.45285933      -1.04843531
C        1.97019268       0.69478563      -0.22747380
O        1.04782943       0.46912287       0.84649007
H       -1.16589599       0.19910157       1.97742302
H       -2.63085557      -0.74873236       1.46721760
H       -2.80800730       0.74424582      -0.42883955
H       -1.18458874       1.48700062      -0.03819650
H       -1.41494247      -0.18434478      -0.94976186
H        0.92941890      -1.62765610       0.76448087
H        2.06309182      -1.23231199      -1.37413013
H        0.76895749      -0.13216724      -1.89301016
H        3.00434598       0.53893398       0.09457615
H        1.87181528       1.69993054      -0.64516631
17
Frame=4 idx=011426 GeodesicLength=0.22805594938375304 rxn_smarts="[C:1]1([H:8])([H:9])[C:2]([H:10])([H:11])[C:3]1([C@@:4]1([H:13])[C:5]([H:14])([H:15])[C:6]([H:16])([H:17])[O:7]1)[H:12]>>[C:1]([C:2]([H:10])([H:11])[H:12])([C:3][C@@:4]1([H:13])[C:5]([H:14])([H:15])[C:6]([H:16])([H:17])[O:7]1)([H:8])[H:9]"
C       -1.69550352      -0.28571283       1.16313905
C       -1.79845289       0.59176192      -0.07876927
C       -0.89507016      -1.00075261       0.15394052
C        0.56052585      -0.74889661       0.21223891
C        1.38394371      -0.45192725      -1.04810164
C        1.97444155       0.69490702      -0.22476729
O        1.05205878       0.46603808       0.84859631
H       -1.16645817       0.20487242       1.97662719
H       -2.62718991      -0.75250697       1.46682722
H       -2.81762686       0.75984205      -0.41097884
H       -1.18282161       1.48286739      -0.04919541
H       -1.44582863      -0.20887472      -0.96130108
H        0.92815725      -1.63078940       0.76104675
H        2.06980058      -1.23128079      -1.37226208
H        0.77725800      -0.13044119      -1.89397501
H        3.00869605       0.54023450       0.09743129
H        1.87406998       1.70065897      -0.64049662
17
Frame=5 idx=011426 GeodesicLength=0.285036952965501 rxn_smarts="[C:1]1([H:8])([H:9])[C:2]([H:10])([H:11])[C:3]1([C@@:4]1([H:13])[C:5]([H:14])([H:15])[C:6]([H:16])([H:17])[O:7]1)[H:12]>>[C:1]([C:2]([H:10])([H:11])[H:12])([C:3][C@@:4]1([H:13])[C:5]([H:14])([H:15])[C:6]([H:16])([H:17])[O:7]1)([H:8])[H:9]"
C       -1.69499923      -0.28247331       1.16325978
C       -1.80407356       0.59201098      -0.08043844
C       -0.89193546      -0.99277955       0.15218053
C        0.56349920      -0.74852830       0.21070311
C        1.38980698      -0.45081874      -1.04780786
C        1.97878275       0.69502662      -0.22193701
O        1.05636421       0.46286957       0.85078663
H       -1.16698158       0.21082949       1.97568149
H       -2.62340752      -0.75613393       1.46637265
H       -2.82660601       0.77544836      -0.39342854
H       -1.18116699       1.47865286      -0.06050106
H       -1.47760673      -0.23451847      -0.97163055
H        0.92678174      -1.63400794       0.75738890
H        2.07642674      -1.23007006      -1.37058441
H        0.78549889      -0.12835983      -1.89487053
H        3.01312761       0.54140634       0.10038095
H        1.87648895       1.70144590      -0.63555567
17
Frame=6 idx=011426 GeodesicLength=0.3420048040100455 rxn_smarts="[C:1]1([H:8])([H:9])[C:2]([H:10])([H:11])[C:3]1([C@@:4]1([H:13])[C:5]([H:14])([H:15])[C:6]([H:16])([H:17])[O:7]1)[H:12]>>[C:1]([C:2]([H:10])([H:11])[H:12])([C:3][C@@:4]1([H:13])[C:5]([H:14])([H:15])[C:6]([H:16])([H:17])[O:7]1)([H:8])[H:9]"
C       -1.69443870      -0.27913852       1.16326507
C       -1.80975097       0.59231380      -0.08224936
C       -0.88881348      -0.98456319       0.15011770
C        0.56647742      -0.74811132       0.20908260
C        1.39569906      -0.44955947      -1.04755814
C        1.98322960       0.69513924      -0.21899910
O        1.06072569       0.45964168       0.85302116
H       -1.16746067       0.21693083       1.97458375
H       -2.61949497      -0.75965061       1.46584986
H       -2.83500612       0.79104374      -0.37618830
H       -1.17969413       1.47440312      -0.07203850
H       -1.51024800      -0.26120072      -0.98065953
H        0.92525386      -1.63728174       0.75350236
H        2.08301704      -1.22872116      -1.36905047
H        0.79376008      -0.12597066      -1.89573781
H        3.01764328       0.54244956       0.10344682
H        1.87910101       1.70227542      -0.63038810
17
Frame=7 idx=011426 GeodesicLength=0.39898132202731096 rxn_smarts="[C:1]1([H:8])([H:9])[C:2]([H:10])([H:11])[C:3]1([C@@:4]1([H:13])[C:5]([H:14])([H:15])[C:6]([H:16])([H:17])[O:7]1)[H:12]>>[C:1]([C:2]([H:10])([H:11])[H:12])([C:3][C@@:4]1([H:13])[C:5]([H:14])([H:15])[C:6]([H:16])([H:17])[O:7]1)([H:8])[H:9]"
C       -1.69382347      -0.27572444       1.16314078
C       -1.81552165       0.59269917      -0.08417872
C       -0.88571985      -0.97607018       0.14769012
C        0.56944446      -0.74762485       0.20734664
C        1.40165867      -0.44817314      -1.04735674
C        1.98779600       0.69523978      -0.21596808
O        1.06512262       0.45637904       0.85526108
H       -1.16789246       0.22313780       1.97333030
H       -2.61543989      -0.76309549       1.46524935
H       -2.84288639       0.80661201      -0.35924363
H       -1.17846913       1.47016709      -0.08373606
H       -1.54372337      -0.28887038      -0.98829926
H        0.92353459      -1.64058024       0.74938086
H        2.08961583      -1.22727353      -1.36761514
H        0.80212118      -0.12331815      -1.89661687
H        3.02224585       0.54336330       0.10665174
H        1.88193701       1.70313221      -0.62503637
17
Frame=8 idx=011426 GeodesicLength=0.4559648677193785 rxn_smarts="[C:1]1([H:8])([H:9])[C:2]([H:10])([H:11])[C:3]1([C@@:4]1([H:13])[C:5]([H:14])([H:15])[C:6]([H:16])([H:17])[O:7]1)[H:12]>>[C:1]([C:2]([H:10])([H:11])[H:12])([C:3][C@@:4]1([H:13])[C:5]([H:14])([H:15])[C:6]([H:16])([H:17])[O:7]1)([H:8])[H:9]"
C       -1.69315501      -0.27224771       1.16287375
C       -1.82142580       0.59319662      -0.08620090
C       -0.88267163      -0.96726422       0.14483444
C        0.57238299      -0.74704615       0.20546090
C        1.40772567      -0.44668421      -1.04720820
C        1.99249694       0.69532206      -0.21285844
O        1.06953343       0.45310760       0.85746520
H       -1.16827281       0.22940962       1.97191874
H       -2.61122781      -0.76650755       1.46456552
H       -2.85031272       0.82212542      -0.34258568
H       -1.17756162       1.46599874      -0.09552235
H       -1.57799658      -0.31746752      -0.99445479
H        0.92158201      -1.64387073       0.74501449
H        2.09626726      -1.22576893      -1.36623143
H        0.81066660      -0.12044644      -1.89754905
H        3.02693750       0.54414327       0.11002130
H        1.88503156       1.70400014      -0.61954349
17
Frame=9 idx=011426 GeodesicLength=0.5125780859176624 rxn_smarts="[C:1]1([H:8])([H:9])[C:2]([H:10])([H:11])[C:3]1([C@@:4]1([H:13])[C:5]([H:14])([H:15])[C:6]([H:16])([H:17])[O:7]1)[H:12]>>[C:1]([C:2]([H:10])([H:11])[H:12])([C:3][C@@:4]1([H:13])[C:5]([H:14])([H:15])[C:6]([H:16])([H:17])[O:7]1)([H:8])[H:9]"
C       -1.69243414      -0.26874399       1.16247086
C       -1.82753445       0.59379291      -0.08828677
C       -0.87969022      -0.95811007       0.14149840
C        0.57526512      -0.74634431       0.20338574
C        1.41395589      -0.44515166      -1.04711358
C        1.99734984       0.69537047      -0.20970587
O        1.07391960       0.44987671       0.85956525
H       -1.16859675       0.23570608       1.97035443
H       -2.60682929      -0.76998888       1.46382528
H       -2.85740557       0.83747938      -0.32620146
H       -1.17712050       1.46195049      -0.10727375
H       -1.61292556      -0.34661180      -0.99909750
H        0.91934212      -1.64709751       0.74041572
H        2.10303549      -1.22429530      -1.36481319
H        0.81952033      -0.11745824      -1.89859904
H        3.03171816       0.54478342       0.11358249
H        1.88842995       1.70484231      -0.61400702
17
Frame=10 idx=011426 GeodesicLength=0.5692329209520831 rxn_smarts="[C:1]1([H:8])([H:9])[C:2]([H:10])([H:11])[C:3]1([C@@:4]1([H:13])[C:5]([H:14])([H:15])[C:6]([H:16])([H:17])[O:7]1)[H:12]>>[C:1]([C:2]([H:10])([H:11])[H:12])([C:3][C@@:4]1([H:13])[C:5]([H:14])([H:15])[C:6]([H:16])([H:17])[O:7]1)([H:8])[H:9]"
C       -1.69166334      -0.26521213       1.16190034
C       -1.83386233       0.59455121      -0.09041510
C       -0.87678656      -0.94856870       0.13762053
C        0.57808178      -0.74550258       0.20109562
C        1.42036854      -0.44356509      -1.04707885
C        2.00236895       0.69538627      -0.20650208
O        1.07827340       0.44669331       0.86154899
H       -1.16886769       0.24199515       1.96862799
H       -2.60223652      -0.77352473       1.46298960
H       -2.86419735       0.85273104      -0.31005075
H       -1.17713905       1.45807540      -0.11898464
H       -1.64854293      -0.37656236      -1.00212030
H        0.91678763      -1.65024782       0.73555658
H        2.10993539      -1.22284966      -1.36335391
H        0.82872215      -0.11433476      -1.89978055
H        3.03659333       0.54527275       0.11736263
H        1.89216460       1.70566270      -0.60841610
17
Frame=11 idx=011426 GeodesicLength=0.6259409874333808 rxn_smarts="[C:1]1([H:8])([H:9])[C:2]([H:10])([H:11])[C:3]1([C@@:4]1([H:13])[C:5]([H:14])([H:15])[C:6]([H:16])([H:17])[O:7]1)[H:12]>>[C:1]([C:2]([H:10])([H:11])[H:12])([C:3][C@@:4]1([H:13])[C:5]([H:14])([H:15])[C:6]([H:16])([H:17])[O:7]1)([H:8])[H:9]"
C       -1.69084470      -0.26166773       1.16115075
C       -1.84045264       0.59549429      -0.09256134
C       -0.87397738      -0.93860386       0.13314934
C        0.58081279      -0.74449712       0.19855779
C        1.42699752      -0.44194670      -1.04710789
C        2.00757053       0.69536088      -0.20325923
O        1.08257103       0.44358441       0.86337769
H       -1.16908645       0.24824526       1.96673761
H       -2.59743055      -0.77715407       1.46205311
H       -2.87077102       0.86784645      -0.29410598
H       -1.17768855       1.45442806      -0.13059530
H       -1.68477340      -0.40726022      -1.00346011
H        0.91387861      -1.65328756       0.73042711
H        2.11699990      -1.22147236      -1.36181181
H        0.83834966      -0.11111191      -1.90113024
H        3.04156643       0.54559716       0.12138937
H        1.89627822       1.70644501      -0.60281088
17
Frame=12 idx=011426 GeodesicLength=0.6827176742360267 rxn_smarts="[C:1]1([H:8])([H:9])[C:2]([H:10])([H:11])[C:3]1([C@@:4]1([H:13])[C:5]([H:14])([H:15])[C:6]([H:16])([H:17])[O:7]1)[H:12]>>[C:1]([C:2]([H:10])([H:11])[H:12])([C:3][C@@:4]1([H:13])[C:5]([H:14])([H:15])[C:6]([H:16])([H:17])[O:7]1)([H:8])[H:9]"
C       -1.68998106      -0.25812446       1.16020885
C       -1.84734740       0.59664317      -0.09470484
C       -0.87127861      -0.92817920       0.12803676
C        0.58343850      -0.74330380       0.19574106
C        1.43387412      -0.44031784      -1.04720431
C        2.01297008       0.69528512      -0.19998862
O        1.08678910       0.44057707       0.86501466
H       -1.16925672       0.25442821       1.96468069
H       -2.59239444      -0.78091713       1.46100859
H       -2.87720850       0.88279660      -0.27832662
H       -1.17883827       1.45106243      -0.14205143
H       -1.72152885      -0.43865528      -1.00306287
H        0.91057677      -1.65618271       0.72501711
H        2.12425810      -1.22020347      -1.36014680
H        0.84847608      -0.10782268      -1.90268234
H        3.04663912       0.54574057       0.12568976
H        1.90081200       1.70717340      -0.59722965
17
Frame=13 idx=011426 GeodesicLength=0.7395961406897029 rxn_smarts="[C:1]1([H:8])([H:9])[C:2]([H:10])([H:11])[C:3]1([C@@:4]1([H:13])[C:5]([H:14])([H:15])[C:6]([H:16])([H:17])[O:7]1)[H:12]>>[C:1]([C:2]([H:10])([H:11])[H:12])([C:3][C@@:4]1([H:13])[C:5]([H:14])([H:15])[C:6]([H:16])([H:17])[O:7]1)([H:8])[H:9]"
C       -1.68907448      -0.25459367       1.15906546
C       -1.85458841       0.59802023      -0.09681948
C       -0.86870663      -0.91725668       0.12224257
C        0.58593877      -0.74189868       0.19261581
C        1.44102312      -0.43869677      -1.04737106
C        2.01858207       0.69514913      -0.19669979
O        1.09090663       0.43769608       0.86642606
H       -1.16938127       0.26051833       1.96245780
H       -2.58710840      -0.78485044       1.45985084
H       -2.88359276       0.89754460      -0.26268749
H       -1.18065300       1.44803401      -0.15330222
H       -1.75870464      -0.47070721      -1.00088560
H        0.90684329      -1.65890089       0.71931331
H        2.13172854      -1.21907939      -1.35832434
H        0.85916496      -0.10449357      -1.90446488
H        3.05181332       0.54568260       0.13028797
H        1.90580890       1.70783231      -0.59170497
17
Frame=14 idx=011426 GeodesicLength=0.7965551708023045 rxn_smarts="[C:1]1([H:8])([H:9])[C:2]([H:10])([H:11])[C:3]1([C@@:4]1([H:13])[C:5]([H:14])([H:15])[C:6]([H:16])([H:17])[O:7]1)[H:12]>>[C:1]([C:2]([H:10])([H:11])[H:12])([C:3][C@@:4]1([H:13])[C:5]([H:14])([H:15])[C:6]([H:16])([H:17])[O:7]1)([H:8])[H:9]"
C       -1.68812926      -0.25108872       1.15770926
C       -1.86221968       0.59964244      -0.09888518
C       -0.86627782      -0.90579676       0.11572365
C        0.58829169      -0.74025558       0.18915090
C        1.44847053      -0.43710465      -1.04761181
C        2.02442089       0.69494172      -0.19340383
O        1.09489934       0.43496999       0.86757608
H       -1.16946649       0.26649068       1.96006815
H       -2.58155227      -0.78899589       1.45857475
H       -2.89001095       0.91205431      -0.24714733
H       -1.18320699       1.44540122      -0.16429402
H       -1.79617594      -0.50336002      -0.99688452
H        0.90263868      -1.66140621       0.71330460
H        2.13943128      -1.21814228      -1.35630677
H        0.87048451      -0.10115533      -1.90650912
H        3.05708911       0.54540003       0.13521048
H        1.91131336       1.70840504      -0.58627531
17
Frame=15 idx=011426 GeodesicLength=0.8535862019203734 rxn_smarts="[C:1]1([H:8])([H:9])[C:2]([H:10])([H:11])[C:3]1([C@@:4]1([H:13])[C:5]([H:14])([H:15])[C:6]([H:16])([H:17])[O:7]1)[H:12]>>[C:1]([C:2]([H:10])([H:11])[H:12])([C:3][C@@:4]1([H:13])[C:5]([H:14])([H:15])[C:6]([H:16])([H:17])[O:7]1)([H:8])[H:9]"
C       -1.68714966      -0.24762029       1.15613185
C       -1.87028259       0.60152666      -0.10087904
C       -0.86400793      -0.89376009       0.10844779
C        0.59047609      -0.73834930       0.18532002
C        1.45623519      -0.43556069      -1.04792927
C        2.03049912       0.69465123      -0.19011118
O        1.09874606       0.43242529       0.86843379
H       -1.16952017       0.27232343       1.95751387
H       -2.57570660      -0.79339338       1.45717456
H       -2.89654793       0.92628543      -0.23167245
H       -1.18656735       1.44322130      -0.17497624
H       -1.83379856      -0.53656202      -0.99103537
H        0.89792546      -1.66366492       0.70698025
H        2.14737563      -1.21743150      -1.35406205
H        0.88248985      -0.09783420      -1.90883936
H        3.06246600       0.54486743       0.14047795
H        1.91736738       1.70887563      -0.58097513
17
Frame=16 idx=011426 GeodesicLength=0.9106709373391182 rxn_smarts="[C:1]1([H:8])([H:9])[C:2]([H:10])([H:11])[C:3]1([C@@:4]1([H:13])[C:5]([H:14])([H:15])[C:6]([H:16])([H:17])[O:7]1)[H:12]>>[C:1]([C:2]([H:10])([H:11])[H:12])([C:3][C@@:4]1([H:13])[C:5]([H:14])([H:15])[C:6]([H:16])([H:17])[O:7]1)([H:8])[H:9]"
C       -1.68614133      -0.24419700       1.15432525
C       -1.87881810       0.60368753      -0.10278109
C       -0.86191290      -0.88110519       0.10038730
C        0.59246978      -0.73615397       0.18109773
C        1.46433089      -0.43408226      -1.04832621
C        2.03682911       0.69426467      -0.18683135
O        1.10242589       0.43008822       0.86896975
H       -1.16955234       0.27799910       1.95479743
H       -2.56955267      -0.79808254       1.45564691
H       -2.90328911       0.94019720      -0.21622596
H       -1.19080184       1.44155277      -0.18530144
H       -1.87140406      -0.57027007      -0.98332142
H        0.89266548      -1.66564357       0.70032847
H        2.15556311      -1.21698535      -1.35156205
H        0.89522950      -0.09455187      -1.91147680
H        3.06794319       0.54405405       0.14611000
H        1.92401540       1.70922830      -0.57583654
