10
Frame=0 idx=005044 GeodesicLength=0.0 rxn_smarts="[C:1]([c:2]1[n:3][c:4]([H:10])[n:5][o:6]1)([H:7])([H:8])[H:9]>>[C:1](=[C:2]1[N:3]=[C:4]([H:10])[N:5]([H:9])[O:6]1)([H:7])[H:8]"
C       -1.42643933      -0.01254999       0.18485169
C       -0.22256883      -0.56404915       0.57435836
N        0.75529134       0.20690820       1.15307804
C        1.49136025       0.36947818       0.08870918
N        1.04608190      -0.29445675      -1.02951387
O        0.28515275      -1.35298513      -0.39881866
H       -1.84814419       0.80536758       0.75362181
H       -2.08863957      -0.59718504      -0.44067808
H       -0.30719133       0.37295794      -0.89963837
H        2.31509701       1.06651417       0.01402991
10
Frame=1 idx=005044 GeodesicLength=0.06020435583149546 rxn_smarts="[C:1]([c:2]1[n:3][c:4]([H:10])[n:5][o:6]1)([H:7])([H:8])[H:9]>>[C:1](=[C:2]1[N:3]=[C:4]([H:10])[N:5]([H:9])[O:6]1)([H:7])[H:8]"
C       -1.43219982      -0.00895782       0.17989605
C       -0.22586591      -0.55882463       0.57321260
N        0.75335194       0.20932126       1.15084285
C        1.50025410       0.36627792       0.09140073
N        1.05457863      -0.29268611      -1.02762814
O        0.28896918      -1.34649566      -0.39972811
H       -1.85463247       0.80033786       0.76031785
H       -2.09994499      -0.60937451      -0.42453738
H       -0.31208640       0.38104725      -0.92510496
H        2.32757573       1.05935445       0.02132851
10
Frame=2 idx=005044 GeodesicLength=0.12037867944139197 rxn_smarts="[C:1]([c:2]1[n:3][c:4]([H:10])[n:5][o:6]1)([H:7])([H:8])[H:9]>>[C:1](=[C:2]1[N:3]=[C:4]([H:10])[N:5]([H:9])[O:6]1)([H:7])[H:8]"
C       -1.43796176      -0.00544453       0.17491543
C       -0.22916126      -0.55373961       0.57206949
N        0.75140547       0.21157958       1.14864916
C        1.50919824       0.36287597       0.09432114
N        1.06298226      -0.29068723      -1.02570477
O        0.29275251      -1.33992553      -0.40080598
H       -1.86077908       0.79539292       0.76669542
H       -2.11106977      -0.62130956      -0.40777781
H       -0.31707944       0.38886196      -0.95119767
H        2.33971284       1.05239601       0.02883558
10
Frame=3 idx=005044 GeodesicLength=0.18052250738299985 rxn_smarts="[C:1]([c:2]1[n:3][c:4]([H:10])[n:5][o:6]1)([H:7])([H:8])[H:9]>>[C:1](=[C:2]1[N:3]=[C:4]([H:10])[N:5]([H:9])[O:6]1)([H:7])[H:8]"
C       -1.44372753      -0.00204074       0.16993580
C       -0.23244744      -0.54881280       0.57094206
N        0.74945810       0.21366868       1.14650667
C        1.51818630       0.35927203       0.09747714
N        1.07127416      -0.28842863      -1.02374565
O        0.29651144      -1.33326889      -0.40205986
H       -1.86656739       0.79056405       0.77273116
H       -2.12200081      -0.63297133      -0.39041512
H       -0.32219758       0.39637908      -0.97792718
H        2.35151075       1.04563854       0.03655497
10
Frame=4 idx=005044 GeodesicLength=0.24064177590836872 rxn_smarts="[C:1]([c:2]1[n:3][c:4]([H:10])[n:5][o:6]1)([H:7])([H:8])[H:9]>>[C:1](=[C:2]1[N:3]=[C:4]([H:10])[N:5]([H:9])[O:6]1)([H:7])[H:8]"
C       -1.44949731       0.00122086       0.16498538
C       -0.23571702      -0.54406351       0.56984417
N        0.74751631       0.21557530       1.14442348
C        1.52721145       0.35546522       0.10087368
N        1.07943979      -0.28588398      -1.02174883
O        0.30025460      -1.32652180      -0.40349498
H       -1.87197931       0.78588298       0.77840888
H       -2.13272707      -0.64433886      -0.37247568
H       -0.32746845       0.40358013      -1.00530393
H        2.36296700       1.03908366       0.04448782
10
Frame=5 idx=005044 GeodesicLength=0.30074064498012104 rxn_smarts="[C:1]([c:2]1[n:3][c:4]([H:10])[n:5][o:6]1)([H:7])([H:8])[H:9]>>[C:1](=[C:2]1[N:3]=[C:4]([H:10])[N:5]([H:9])[O:6]1)([H:7])[H:8]"
C       -1.45527497       0.00431322       0.16008258
C       -0.23896340      -0.53950899       0.56878448
N        0.74558494       0.21728407       1.14241039
C        1.53626963       0.35145525       0.10451729
N        1.08746548      -0.28301754      -1.01971616
O        0.30399091      -1.31967570      -0.40512247
H       -1.87700573       0.78138158       0.78371110
H       -2.14323326      -0.65539388      -0.35396396
H       -0.33292610       0.41043369      -1.03334842
H        2.37409249       1.03272830       0.05264516
10
Frame=6 idx=005044 GeodesicLength=0.36082138977738465 rxn_smarts="[C:1]([c:2]1[n:3][c:4]([H:10])[n:5][o:6]1)([H:7])([H:8])[H:9]>>[C:1](=[C:2]1[N:3]=[C:4]([H:10])[N:5]([H:9])[O:6]1)([H:7])[H:8]"
C       -1.46105870       0.00720912       0.15525988
C       -0.24217909      -0.53516563       0.56777942
N        0.74367179       0.21878525       1.14047527
C        1.54535654       0.34724069       0.10841255
N        1.09533619      -0.27980260      -1.01764559
O        0.30772711      -1.31272363      -0.40694483
H       -1.88163124       0.77709211       0.78863846
H       -2.15351279      -0.66612237      -0.33492653
H       -0.33859421       0.41691582      -1.06207486
H        2.38488442       1.02657124       0.06102623
10
Frame=7 idx=005044 GeodesicLength=0.4208911844563438 rxn_smarts="[C:1]([c:2]1[n:3][c:4]([H:10])[n:5][o:6]1)([H:7])([H:8])[H:9]>>[C:1](=[C:2]1[N:3]=[C:4]([H:10])[N:5]([H:9])[O:6]1)([H:7])[H:8]"
C       -1.46684775       0.00989024       0.15053431
C       -0.24535812      -0.53104391       0.56683682
N        0.74178284       0.22006910       1.13862645
C        1.55446951       0.34282266       0.11256298
N        1.10304268      -0.27620538      -1.01553611
O        0.31147195      -1.30565436      -0.40896914
H       -1.88585344       0.77304016       0.79319054
H       -2.16355832      -0.67651616      -0.31538100
H       -0.34450825       0.42299718      -1.09150798
H        2.39535889       1.02060046       0.06964313
10
Frame=8 idx=005044 GeodesicLength=0.4809491102496525 rxn_smarts="[C:1]([c:2]1[n:3][c:4]([H:10])[n:5][o:6]1)([H:7])([H:8])[H:9]>>[C:1](=[C:2]1[N:3]=[C:4]([H:10])[N:5]([H:9])[O:6]1)([H:7])[H:8]"
C       -1.47264009       0.01233721       0.14593013
C       -0.24849493      -0.52715717       0.56596927
N        0.73992296       0.22112736       1.13687082
C        1.56360327       0.33820343       0.11697255
N        1.11057143      -0.27219341      -1.01338570
O        0.31523105      -1.29845630      -0.41120103
H       -1.88966249       0.76924725       0.79737532
H       -2.17336505      -0.68655862      -0.29535946
H       -0.35068995       0.42864124      -1.12167596
H        2.40552381       1.01480900       0.07850408
10
Frame=9 idx=005044 GeodesicLength=0.5409899519437507 rxn_smarts="[C:1]([c:2]1[n:3][c:4]([H:10])[n:5][o:6]1)([H:7])([H:8])[H:9]>>[C:1](=[C:2]1[N:3]=[C:4]([H:10])[N:5]([H:9])[O:6]1)([H:7])[H:8]"
C       -1.47844423       0.01449571       0.14147531
C       -0.25158047      -0.52353331       0.56519088
N        0.73809619       0.22194600       1.13522067
C        1.57274078       0.33339736       0.12163947
N        1.11790259      -0.26771323      -1.01119353
O        0.31901964      -1.29111791      -0.41365205
H       -1.89304304       0.76574473       0.80117018
H       -2.18289554      -0.69618805      -0.27487360
H       -0.35718956       0.43378953      -1.15260680
H        2.41539365       1.00917917       0.08762948
10
Frame=10 idx=005044 GeodesicLength=0.6010197222764644 rxn_smarts="[C:1]([c:2]1[n:3][c:4]([H:10])[n:5][o:6]1)([H:7])([H:8])[H:9]>>[C:1](=[C:2]1[N:3]=[C:4]([H:10])[N:5]([H:9])[O:6]1)([H:7])[H:8]"
C       -1.48425414       0.01638406       0.13717452
C       -0.25461189      -0.52016616       0.56450534
N        0.73630790       0.22252580       1.13368137
C        1.58188720       0.32840907       0.12656597
N        1.12503064      -0.26273109      -1.00895945
O        0.32283944      -1.28361575      -0.41632795
H       -1.89601043       0.76253121       0.80461040
H       -2.19216186      -0.70542188      -0.25394431
H       -0.36402603       0.43840223      -1.18434431
H        2.42499918       1.00368250       0.09703843
10
Frame=11 idx=005044 GeodesicLength=0.6610423385449314 rxn_smarts="[C:1]([c:2]1[n:3][c:4]([H:10])[n:5][o:6]1)([H:7])([H:8])[H:9]>>[C:1](=[C:2]1[N:3]=[C:4]([H:10])[N:5]([H:9])[O:6]1)([H:7])[H:8]"
C       -1.49006486       0.01800492       0.13304562
C       -0.25758504      -0.51705783       0.56392243
N        0.73456535       0.22286347       1.13225947
C        1.59103993       0.32324301       0.13175133
N        1.13194577      -0.25721325      -1.00667832
O        0.32669300      -1.27593058      -0.41923155
H       -1.89856916       0.75961417       0.80772581
H       -2.20116974      -0.71426311      -0.23261081
H       -0.37121538       0.44244107      -1.21692528
H        2.43436011       0.99829812       0.10674131
10
Frame=12 idx=005044 GeodesicLength=0.7210539652969783 rxn_smarts="[C:1]([c:2]1[n:3][c:4]([H:10])[n:5][o:6]1)([H:7])([H:8])[H:9]>>[C:1](=[C:2]1[N:3]=[C:4]([H:10])[N:5]([H:9])[O:6]1)([H:7])[H:8]"
C       -1.49587656       0.01935264       0.12909809
C       -0.26049584      -0.51421510       0.56344716
N        0.73287293       0.22295247       1.13096487
C        1.60019148       0.31791446       0.13719319
N        1.13863564      -0.25110617      -1.00434852
O        0.33058582      -1.26803609      -0.42237657
H       -1.90072384       0.75699790       0.81053129
H       -2.20991011      -0.72269277      -0.21087991
H       -0.37878876       0.44584052      -1.25039691
H        2.44350923       0.99299216       0.11676731
10
Frame=13 idx=005044 GeodesicLength=0.7810544683509439 rxn_smarts="[C:1]([c:2]1[n:3][c:4]([H:10])[n:5][o:6]1)([H:7])([H:8])[H:9]>>[C:1](=[C:2]1[N:3]=[C:4]([H:10])[N:5]([H:9])[O:6]1)([H:7])[H:8]"
C       -1.50168299       0.02043687       0.12534770
C       -0.26334104      -0.51163807       0.56308656
N        0.73123786       0.22278935       1.12980369
C        1.60933613       0.31243267       0.14288791
N        1.14508929      -0.24437047      -1.00196367
O        0.33451965      -1.25990870      -0.42576703
H       -1.90247881       0.75468288       0.81306259
H       -2.21839399      -0.73071496      -0.18878791
H       -0.38675688       0.44855273      -1.28480170
H        2.45247077       0.98773770       0.12713186
10
Frame=14 idx=005044 GeodesicLength=0.841040081528853 rxn_smarts="[C:1]([c:2]1[n:3][c:4]([H:10])[n:5][o:6]1)([H:7])([H:8])[H:9]>>[C:1](=[C:2]1[N:3]=[C:4]([H:10])[N:5]([H:9])[O:6]1)([H:7])[H:8]"
C       -1.50748354       0.02125726       0.12180318
C       -0.26611713      -0.50933394       0.56284495
N        0.72966568       0.22236117       1.12878952
C        1.61846418       0.30681718       0.14882923
N        1.15129048      -0.23694578      -0.99952071
O        0.33849804      -1.25151706      -0.42941907
H       -1.90383754       0.75267100       0.81533666
H       -2.22661373      -0.73831061      -0.16633972
H       -0.39514431       0.45050275      -1.32019175
H        2.46127787       0.98249802       0.13786770
10
Frame=15 idx=005044 GeodesicLength=0.9010092536226174 rxn_smarts="[C:1]([c:2]1[n:3][c:4]([H:10])[n:5][o:6]1)([H:7])([H:8])[H:9]>>[C:1](=[C:2]1[N:3]=[C:4]([H:10])[N:5]([H:9])[O:6]1)([H:7])[H:8]"
C       -1.51327296       0.02182440       0.11847742
C       -0.26882140      -0.50730682       0.56272721
N        0.72816440       0.22165417       1.12793350
C        1.62756491       0.30108442       0.15500938
N        1.15722620      -0.22878399      -0.99701096
O        0.34252124      -1.24283212      -0.43334302
H       -1.90480049       0.75095923       0.81738614
H       -2.23457583      -0.74547003      -0.14356081
H       -0.40395944       0.45162499      -1.35661511
H        2.46995338       0.97724575       0.14899626
10
Frame=16 idx=005044 GeodesicLength=0.9609540508824795 rxn_smarts="[C:1]([c:2]1[n:3][c:4]([H:10])[n:5][o:6]1)([H:7])([H:8])[H:9]>>[C:1](=[C:2]1[N:3]=[C:4]([H:10])[N:5]([H:9])[O:6]1)([H:7])[H:8]"
C       -1.51904624       0.02214859       0.11538151
C       -0.27145176      -0.50556603       0.56273630
N        0.72674238       0.22064296       1.12725226
C        1.63663012       0.29524613       0.16142259
N        1.16287834      -0.21982827      -0.99442743
O        0.34658831      -1.23382234      -0.43755495
H       -1.90536333       0.74955056       0.81923688
H       -2.24228333      -0.75217643      -0.12046730
H       -0.41320711       0.45184196      -1.39412050
H        2.47851262       0.97196287       0.16054064
