18
Frame=0 idx=011093 GeodesicLength=0.0 rxn_smarts="[C:1]([C@@:2]1([H:11])[C:3]([H:12])([H:13])[N:4]1[C:5]([C:6]([O:7][H:18])([H:16])[H:17])([H:14])[H:15])([H:8])([H:9])[H:10]>>[C:1]([C@@:2]1([H:11])[C:3]([H:12])([H:13])[N:4]1/[C:5](=[C:6](\[O:7][H:18])[H:16])[H:14])([H:8])([H:9])[H:10].[H:15][H:17]"
C        2.06029974       0.41354917      -1.25486852
C        1.21996044      -0.53273749      -0.44545362
C        1.25140566      -0.55358486       1.03794030
N        0.12342624       0.01919441       0.32918031
C       -1.14173978      -0.64800836       0.35527153
C       -2.22307865       0.26216146       0.08505158
O       -1.99673444       1.45411298      -0.44957874
H        1.57824706       0.64641868      -2.20728993
H        3.03962478      -0.02020501      -1.46890764
H        2.21015014       1.34758169      -0.71097659
H        1.00914648      -1.48910859      -0.91996859
H        1.88534058       0.14523716       1.57375285
H        1.08396806      -1.50256900       1.53716241
H       -1.23654654      -1.67562264       0.01627285
H       -1.95021940      -0.03587393       1.43183543
H       -3.20685936      -0.14913605      -0.10577616
H       -2.67551607       0.74294632       1.56656430
H       -1.03087489       1.57564412      -0.37021176
18
Frame=1 idx=011093 GeodesicLength=0.08627455853946514 rxn_smarts="[C:1]([C@@:2]1([H:11])[C:3]([H:12])([H:13])[N:4]1[C:5]([C:6]([O:7][H:18])([H:16])[H:17])([H:14])[H:15])([H:8])([H:9])[H:10]>>[C:1]([C@@:2]1([H:11])[C:3]([H:12])([H:13])[N:4]1/[C:5](=[C:6](\[O:7][H:18])[H:16])[H:14])([H:8])([H:9])[H:10].[H:15][H:17]"
C        2.06177768       0.41054436      -1.25732796
C        1.21744172      -0.53193204      -0.44765033
C        1.25138100      -0.55392022       1.03548482
N        0.12527513       0.02592671       0.32879687
C       -1.14003627      -0.64028976       0.36123356
C       -2.22403333       0.26239246       0.08377052
O       -2.00201302       1.45996726      -0.44815875
H        1.57961554       0.64638249      -2.20891895
H        3.03860435      -0.02818476      -1.47258912
H        2.21700515       1.34343161      -0.71302240
H        1.00102468      -1.48684032      -0.92263670
H        1.88614704       0.14313022       1.57254293
H        1.08106854      -1.50287665       1.53392695
H       -1.23094627      -1.67205747       0.03234849
H       -1.94370086      -0.03932356       1.46440452
H       -3.19423188      -0.16294034      -0.14535059
H       -2.68564210       0.73610926       1.56432264
H       -1.03873710       1.59048077      -0.36117649
18
Frame=2 idx=011093 GeodesicLength=0.1723952056411101 rxn_smarts="[C:1]([C@@:2]1([H:11])[C:3]([H:12])([H:13])[N:4]1[C:5]([C:6]([O:7][H:18])([H:16])[H:17])([H:14])[H:15])([H:8])([H:9])[H:10]>>[C:1]([C@@:2]1([H:11])[C:3]([H:12])([H:13])[N:4]1/[C:5](=[C:6](\[O:7][H:18])[H:16])[H:14])([H:8])([H:9])[H:10].[H:15][H:17]"
C        2.06304968       0.40722086      -1.26000643
C        1.21473998      -0.53119264      -0.44977830
C        1.25120111      -0.55391751       1.03310255
N        0.12699763       0.03278943       0.32834998
C       -1.13851120      -0.63228534       0.36730608
C       -2.22517519       0.26261029       0.08177897
O       -2.00734275       1.46655895      -0.44585538
H        1.58077903       0.64576972      -2.21082394
H        3.03734534      -0.03653735      -1.47638469
H        2.22366888       1.33908996      -0.71555448
H        0.99266706      -1.48473058      -0.92496232
H        1.88681535       0.14149849       1.57120322
H        1.07798960      -1.50269026       1.53104484
H       -1.22545257      -1.66818064       0.04876139
H       -1.93647676      -0.04275535       1.49777112
H       -3.17981256      -0.17628024      -0.18718087
H       -2.69568137       0.72717349       1.56220102
H       -1.04680127       1.60585873      -0.35097274
18
Frame=3 idx=011093 GeodesicLength=0.25843996411628867 rxn_smarts="[C:1]([C@@:2]1([H:11])[C:3]([H:12])([H:13])[N:4]1[C:5]([C:6]([O:7][H:18])([H:16])[H:17])([H:14])[H:15])([H:8])([H:9])[H:10]>>[C:1]([C@@:2]1([H:11])[C:3]([H:12])([H:13])[N:4]1/[C:5](=[C:6](\[O:7][H:18])[H:16])[H:14])([H:8])([H:9])[H:10].[H:15][H:17]"
C        2.06406607       0.40358342      -1.26289323
C        1.21181886      -0.53051967      -0.45182798
C        1.25085649      -0.55358648       1.03079899
N        0.12857229       0.03977916       0.32786145
C       -1.13718995      -0.62398800       0.37355565
C       -2.22650689       0.26278003       0.07897630
O       -2.01276223       1.47387047      -0.44264586
H        1.58167719       0.64459485      -2.21298764
H        3.03579552      -0.04525429      -1.48029015
H        2.23009626       1.33455508      -0.71855890
H        0.98402004      -1.48276958      -0.92694062
H        1.88734320       0.14032717       1.56973600
H        1.07473619      -1.50202288       1.52851609
H       -1.22008730      -1.66396667       0.06558654
H       -1.92845288      -0.04609579       1.53202090
H       -3.16335200      -0.18903032      -0.23141780
H       -2.70553497       0.71603128       1.56015168
H       -1.05509588       1.62171223      -0.33964141
18
Frame=4 idx=011093 GeodesicLength=0.3444780082946917 rxn_smarts="[C:1]([C@@:2]1([H:11])[C:3]([H:12])([H:13])[N:4]1[C:5]([C:6]([O:7][H:18])([H:16])[H:17])([H:14])[H:15])([H:8])([H:9])[H:10]>>[C:1]([C@@:2]1([H:11])[C:3]([H:12])([H:13])[N:4]1/[C:5](=[C:6](\[O:7][H:18])[H:16])[H:14])([H:8])([H:9])[H:10].[H:15][H:17]"
C        2.06477862       0.39962601      -1.26597775
C        1.20864060      -0.52991414      -0.45378738
C        1.25032763      -0.55292636       1.02857936
N        0.12997129       0.04689899       0.32734540
C       -1.13610296      -0.61538601       0.38003955
C       -2.22802767       0.26286853       0.07525204
O       -2.01834850       1.48187299      -0.43847204
H        1.58225547       0.64285471      -2.21539440
H        3.03390464      -0.05434219      -1.48429489
H        2.23624310       1.32981848      -0.72203050
H        0.97503239      -1.48095251      -0.92855650
H        1.88771622       0.13961527       1.56813904
H        1.07130100      -1.50087041       1.52634509
H       -1.21487871      -1.65938001       0.08286950
H       -1.91953341      -0.04927575       1.56725206
H       -3.14452892      -0.20102331      -0.27819905
H       -2.71506772       0.70253493       1.55810631
H       -1.06368308       1.63798077      -0.32721583
18
Frame=5 idx=011093 GeodesicLength=0.4306780934820904 rxn_smarts="[C:1]([C@@:2]1([H:11])[C:3]([H:12])([H:13])[N:4]1[C:5]([C:6]([O:7][H:18])([H:16])[H:17])([H:14])[H:15])([H:8])([H:9])[H:10]>>[C:1]([C@@:2]1([H:11])[C:3]([H:12])([H:13])[N:4]1/[C:5](=[C:6](\[O:7][H:18])[H:16])[H:14])([H:8])([H:9])[H:10].[H:15][H:17]"
C        2.06517484       0.39534511      -1.26926107
C        1.20518286      -0.52937340      -0.45565228
C        1.24960328      -0.55193688       1.02645652
N        0.13118592       0.05416640       0.32681436
C       -1.13527251      -0.60643684       0.38679154
C       -2.22966789       0.26288538       0.07043866
O       -2.02415288       1.49053937      -0.43334076
H        1.58249920       0.64055174      -2.21804862
H        3.03165574      -0.06381368      -1.48840440
H        2.24211379       1.32487793      -0.72596644
H        0.96565629      -1.47927033      -0.92980898
H        1.88793988       0.13935568       1.56642440
H        1.06765872      -1.49923500       1.52454818
H       -1.20987358      -1.65440738       0.10063320
H       -1.90963771      -0.05229339       1.60357661
H       -3.12318933      -0.21212564      -0.32734819
H       -2.72426299       0.68651026       1.55584268
H       -1.07261362       1.65466070      -0.31369542
18
Frame=6 idx=011093 GeodesicLength=0.516933867675982 rxn_smarts="[C:1]([C@@:2]1([H:11])[C:3]([H:12])([H:13])[N:4]1[C:5]([C:6]([O:7][H:18])([H:16])[H:17])([H:14])[H:15])([H:8])([H:9])[H:10]>>[C:1]([C@@:2]1([H:11])[C:3]([H:12])([H:13])[N:4]1/[C:5](=[C:6](\[O:7][H:18])[H:16])[H:14])([H:8])([H:9])[H:10].[H:15][H:17]"
C        2.06519892       0.39073836      -1.27271282
C        1.20139651      -0.52889645      -0.45740447
C        1.24863097      -0.55061673       1.02443800
N        0.13216322       0.06157979       0.32626902
C       -1.13474691      -0.59714589       0.39383624
C       -2.23145715       0.26277811       0.06447860
O       -2.03032382       1.49979502      -0.42720177
H        1.58235930       0.63768551      -2.22092030
H        3.02899434      -0.07366752      -1.49257287
H        2.24764444       1.31972584      -0.73034213
H        0.95584352      -1.47771616      -0.93067826
H        1.88795389       0.13955009       1.56460186
H        1.06376829      -1.49711281       1.52312773
H       -1.20511112      -1.64898898       0.11884389
H       -1.89871177      -0.05506131       1.64105921
H       -3.09888409      -0.22215424      -0.37903458
H       -2.73271765       0.66787260       1.55344669
H       -1.08200090       1.67163474      -0.29923402
18
Frame=7 idx=011093 GeodesicLength=0.6032242481346918 rxn_smarts="[C:1]([C@@:2]1([H:11])[C:3]([H:12])([H:13])[N:4]1[C:5]([C:6]([O:7][H:18])([H:16])[H:17])([H:14])[H:15])([H:8])([H:9])[H:10]>>[C:1]([C@@:2]1([H:11])[C:3]([H:12])([H:13])[N:4]1/[C:5](=[C:6](\[O:7][H:18])[H:16])[H:14])([H:8])([H:9])[H:10].[H:15][H:17]"
C        2.06481910       0.38581840      -1.27629500
C        1.19724225      -0.52847680      -0.45903203
C        1.24735658      -0.54897664       1.02253026
N        0.13285523       0.06913765       0.32570923
C       -1.13457200      -0.58751528       0.40116682
C       -2.23341205       0.26249511       0.05729619
O       -2.03700057       1.50954052      -0.42009631
H        1.58181621       0.63428211      -2.22397230
H        3.02589111      -0.08388999      -1.49675197
H        2.25279534       1.31436604      -0.73510860
H        0.94555950      -1.47627337      -0.93116622
H        1.88769796       0.14018015       1.56269194
H        1.05957495      -1.49451873       1.52207260
H       -1.20063751      -1.64310789       0.13744364
H       -1.88672131      -0.05755668       1.67976072
H       -3.07127558      -0.23093944      -0.43316837
H       -2.74003341       0.64663175       1.55094368
H       -1.09195579       1.68880308      -0.28402428
18
Frame=8 idx=011093 GeodesicLength=0.6895482082276644 rxn_smarts="[C:1]([C@@:2]1([H:11])[C:3]([H:12])([H:13])[N:4]1[C:5]([C:6]([O:7][H:18])([H:16])[H:17])([H:14])[H:15])([H:8])([H:9])[H:10]>>[C:1]([C@@:2]1([H:11])[C:3]([H:12])([H:13])[N:4]1/[C:5](=[C:6](\[O:7][H:18])[H:16])[H:14])([H:8])([H:9])[H:10].[H:15][H:17]"
C        2.06401711       0.38061274      -1.27995464
C        1.19268908      -0.52810253      -0.46052414
C        1.24572132      -0.54704033       1.02074071
N        0.13321607       0.07683424       0.32513170
C       -1.13479298      -0.57755089       0.40874669
C       -2.23554077       0.26198788       0.04881127
O       -2.04431723       1.51963247      -0.41215698
H        1.58086897       0.63039034      -2.22715565
H        3.02233165      -0.09444776      -1.50087499
H        2.25753827       1.30881273      -0.74018901
H        0.93478132      -1.47491571      -0.93128877
H        1.88710330       0.14120801       1.56073028
H        1.05501109      -1.49148555       1.52136318
H       -1.19650065      -1.63674476       0.15632000
H       -1.87363730      -0.05980493       1.71972051
H       -3.04015380      -0.23833027      -0.48947075
H       -2.74574870       0.62289577       1.54837862
H       -1.10258675       1.70604855      -0.26832802
18
Frame=9 idx=011093 GeodesicLength=0.7759438332440044 rxn_smarts="[C:1]([C@@:2]1([H:11])[C:3]([H:12])([H:13])[N:4]1[C:5]([C:6]([O:7][H:18])([H:16])[H:17])([H:14])[H:15])([H:8])([H:9])[H:10]>>[C:1]([C@@:2]1([H:11])[C:3]([H:12])([H:13])[N:4]1/[C:5](=[C:6](\[O:7][H:18])[H:16])[H:14])([H:8])([H:9])[H:10].[H:15][H:17]"
C        2.06281385       0.37516079      -1.28366568
C        1.18772519      -0.52775990      -0.46188163
C        1.24368424      -0.54483680       1.01909290
N        0.13322836       0.08467624       0.32454202
C       -1.13543821      -0.56724117       0.41652285
C       -2.23775452       0.26128109       0.03893962
O       -2.05239069       1.52985334      -0.40353490
H        1.57955452       0.62606622      -2.23046385
H        3.01833732      -0.10530311      -1.50492055
H        2.26189811       1.30309724      -0.74551975
H        0.92349432      -1.47361780      -0.93108202
H        1.88613397       0.14259017       1.55877605
H        1.04999963      -1.48806475       1.52100448
H       -1.19277124      -1.62994108       0.17536238
H       -1.85947040      -0.06190193       1.76099868
H       -3.00547795      -0.24415156      -0.54736970
H       -2.74954759       0.59678944       1.54552352
H       -1.11401888       1.72330357      -0.25232442
18
Frame=10 idx=011093 GeodesicLength=0.8622912139986763 rxn_smarts="[C:1]([C@@:2]1([H:11])[C:3]([H:12])([H:13])[N:4]1[C:5]([C:6]([O:7][H:18])([H:16])[H:17])([H:14])[H:15])([H:8])([H:9])[H:10]>>[C:1]([C@@:2]1([H:11])[C:3]([H:12])([H:13])[N:4]1/[C:5](=[C:6](\[O:7][H:18])[H:16])[H:14])([H:8])([H:9])[H:10].[H:15][H:17]"
C        2.06119877       0.36952850      -1.28733324
C        1.18232986      -0.52743184      -0.46310414
C        1.24116906      -0.54242741       1.01756990
N        0.13282676       0.09261645       0.32392294
C       -1.13655528      -0.55666990       0.42440031
C       -2.24016971       0.26023681       0.02776938
O       -2.06136857       1.54001500      -0.39450506
H        1.57789299       0.62142693      -2.23379478
H        3.01391374      -0.11636461      -1.50877795
H        2.26582711       1.29725240      -0.75095229
H        0.91172062      -1.47233970      -0.93060570
H        1.88467723       0.14424369       1.55687022
H        1.04447371      -1.48434072       1.52090966
H       -1.18946827      -1.62270475       0.19438941
H       -1.84426851      -0.06390038       1.80353637
H       -2.96706097      -0.24833446      -0.60657555
H       -2.75079616       0.56885087       1.54277083
H       -1.12634238       1.74034312      -0.23649031
18
Frame=11 idx=011093 GeodesicLength=0.9485806712380126 rxn_smarts="[C:1]([C@@:2]1([H:11])[C:3]([H:12])([H:13])[N:4]1[C:5]([C:6]([O:7][H:18])([H:16])[H:17])([H:14])[H:15])([H:8])([H:9])[H:10]>>[C:1]([C@@:2]1([H:11])[C:3]([H:12])([H:13])[N:4]1/[C:5](=[C:6](\[O:7][H:18])[H:16])[H:14])([H:8])([H:9])[H:10].[H:15][H:17]"
C        2.05919946       0.36379825      -1.29087119
C        1.17651093      -0.52709272      -0.46420109
C        1.23813788      -0.53989102       1.01616062
N        0.13199449       0.10062238       0.32326886
C       -1.13815504      -0.54588352       0.43227338
C       -2.24281709       0.25880657       0.01536119
O       -2.07127593       1.54991946      -0.38542133
H        1.57594305       0.61661801      -2.23705931
H        3.00909571      -0.12753207      -1.51235936
H        2.26932975       1.29132164      -0.75633380
H        0.89949346      -1.47102184      -0.92993946
H        1.88267366       0.14605308       1.55506965
H        1.03838493      -1.48042550       1.52099613
H       -1.18660129      -1.61507971       0.21323285
H       -1.82804165      -0.06593311       1.84727516
H       -2.92519301      -0.25093841      -0.66645086
H       -2.74910014       0.53963701       1.54023115
H       -1.13957918       1.75702150      -0.22123260
18
Frame=12 idx=011093 GeodesicLength=1.034807852996048 rxn_smarts="[C:1]([C@@:2]1([H:11])[C:3]([H:12])([H:13])[N:4]1[C:5]([C:6]([O:7][H:18])([H:16])[H:17])([H:14])[H:15])([H:8])([H:9])[H:10]>>[C:1]([C@@:2]1([H:11])[C:3]([H:12])([H:13])[N:4]1/[C:5](=[C:6](\[O:7][H:18])[H:16])[H:14])([H:8])([H:9])[H:10].[H:15][H:17]"
C        2.05686178       0.35805996      -1.29419951
C        1.17028235      -0.52671892      -0.46518773
C        1.23454090      -0.53730638       1.01485721
N        0.13070585       0.10865379       0.32256821
C       -1.14025714      -0.53495461       0.44001305
C       -2.24571932       0.25693499       0.00180122
O       -2.08218833       1.55931197      -0.37663730
H        1.57378629       0.61178719      -2.24018363
H        3.00394304      -0.13869278      -1.51558296
H        2.27242362       1.28536251      -0.76150671
H        0.88686137      -1.46961517      -0.92917812
H        1.88004672       0.14791035       1.55344207
H        1.03166603      -1.47643626       1.52118284
H       -1.18419601      -1.60713252       0.23168663
H       -1.81086262      -0.06817516       1.89214650
H       -2.88009280      -0.25194409      -0.72624301
H       -2.74401370       0.50978854       1.53802004
H       -1.15378802       1.77316658      -0.20699879
18
Frame=13 idx=011093 GeodesicLength=1.120974928387423 rxn_smarts="[C:1]([C@@:2]1([H:11])[C:3]([H:12])([H:13])[N:4]1[C:5]([C:6]([O:7][H:18])([H:16])[H:17])([H:14])[H:15])([H:8])([H:9])[H:10]>>[C:1]([C@@:2]1([H:11])[C:3]([H:12])([H:13])[N:4]1/[C:5](=[C:6](\[O:7][H:18])[H:16])[H:14])([H:8])([H:9])[H:10].[H:15][H:17]"
C        2.05424903       0.35240693      -1.29723639
C        1.16368209      -0.52628553      -0.46608382
C        1.23035229      -0.53475541       1.01364430
N        0.12895831       0.11666664       0.32180337
C       -1.14285582      -0.52396248       0.44747659
C       -2.24890293       0.25457304      -0.01279143
O       -2.09411452       1.56796254      -0.36854416
H        1.57152365       0.60708826      -2.24308906
H        2.99853140      -0.14972821      -1.51836168
H        2.27513886       1.27943100      -0.76631373
H        0.87390276      -1.46806859      -0.92842105
H        1.87673992       0.14970272       1.55204897
H        1.02427827      -1.47249405       1.52137930
H       -1.18224961      -1.59894285       0.24954345
H       -1.79280663      -0.07084130       1.93803535
H       -2.83224246      -0.25140603      -0.78513701
H       -2.73520795       0.48002049       1.53624822
H       -1.16897666       1.78863283      -0.19420122
18
Frame=14 idx=011093 GeodesicLength=1.2071461110377621 rxn_smarts="[C:1]([C@@:2]1([H:11])[C:3]([H:12])([H:13])[N:4]1[C:5]([C:6]([O:7][H:18])([H:16])[H:17])([H:14])[H:15])([H:8])([H:9])[H:10]>>[C:1]([C@@:2]1([H:11])[C:3]([H:12])([H:13])[N:4]1/[C:5](=[C:6](\[O:7][H:18])[H:16])[H:14])([H:8])([H:9])[H:10].[H:15][H:17]"
C        2.05144274       0.34692977      -1.29990961
C        1.15676104      -0.52577013      -0.46691635
C        1.22555438      -0.53231723       1.01250036
N        0.12675752       0.12461550       0.32095278
C       -1.14593419      -0.51299711       0.45450511
C       -2.25239282       0.25166580      -0.02827634
O       -2.10704202       1.57566340      -0.36150739
H        1.56927090       0.60266909      -2.24570566
H        2.99295914      -0.16052350      -1.52062459
H        2.27752598       1.27358825      -0.77060181
H        0.86071513      -1.46633827      -0.92777465
H        1.87270376       0.15132261       1.55094445
H        1.01619060      -1.46871584       1.52148796
H       -1.18074655      -1.59060115       0.26660003
H       -1.77397463      -0.07416294       1.98483478
H       -2.78220756      -0.24942516      -0.84231270
H       -2.72244535       0.45110348       1.53501737
H       -1.18513807       1.80329343      -0.18321373
18
Frame=15 idx=011093 GeodesicLength=1.2933765546264566 rxn_smarts="[C:1]([C@@:2]1([H:11])[C:3]([H:12])([H:13])[N:4]1[C:5]([C:6]([O:7][H:18])([H:16])[H:17])([H:14])[H:15])([H:8])([H:9])[H:10]>>[C:1]([C@@:2]1([H:11])[C:3]([H:12])([H:13])[N:4]1/[C:5](=[C:6](\[O:7][H:18])[H:16])[H:14])([H:8])([H:9])[H:10].[H:15][H:17]"
C        2.04853054       0.34170267      -1.30216897
C        1.14958600      -0.52515607      -0.46771244
C        1.22015651      -0.53005319       1.01140443
N        0.12413079       0.13245989       0.31999079
C       -1.14945300      -0.50214497       0.46095662
C       -2.25620212       0.24818027      -0.04448954
O       -2.12090712       1.58226164      -0.35583599
H        1.56714433       0.59864620      -2.24798667
H        2.98732769      -0.17098097      -1.52231983
H        2.27964274       1.26788565      -0.77425773
H        0.84741041      -1.46439428      -0.92732843
H        1.86791766       0.15269006       1.55016756
H        1.00740472      -1.46519435       1.52143045
H       -1.17965454      -1.58220179       0.28268867
H       -1.75447300      -0.07839521       2.03241380
H       -2.73066266      -0.24612757      -0.89704306
H       -2.70567540       0.42375390       1.53438785
H       -1.20222354       1.81706813      -0.17429752
18
Frame=16 idx=011093 GeodesicLength=1.3797446959782895 rxn_smarts="[C:1]([C@@:2]1([H:11])[C:3]([H:12])([H:13])[N:4]1[C:5]([C:6]([O:7][H:18])([H:16])[H:17])([H:14])[H:15])([H:8])([H:9])[H:10]>>[C:1]([C@@:2]1([H:11])[C:3]([H:12])([H:13])[N:4]1/[C:5](=[C:6](\[O:7][H:18])[H:16])[H:14])([H:8])([H:9])[H:10].[H:15][H:17]"
C        2.04561314       0.33678067      -1.30397764
C        1.14223875      -0.52443125      -0.46849988
C        1.21418637      -0.52800533       1.01033297
N        0.12112189       0.14016769       0.31888342
C       -1.15335630      -0.49148196       0.46669809
C       -2.26033429       0.24410193      -0.06127006
O       -2.13561267       1.58767186      -0.35176582
H        1.56527249       0.59510375      -2.24989959
H        2.98175065      -0.18102742      -1.52340343
H        2.28156031       1.26236212      -0.77719888
H        0.83411346      -1.46221837      -0.92715565
H        1.86237925       0.15375225       1.54974229
H        0.99794443      -1.46199355       1.52113931
H       -1.17892443      -1.57382914       0.29766709
H       -1.73439061      -0.08377734       2.08065012
H       -2.67842105      -0.24167605      -0.94869323
H       -2.68498499       0.39858313       1.53437217
H       -1.22015641       1.82991701      -0.16762128
