15
Frame=0 idx=001705 GeodesicLength=0.0 rxn_smarts="[C:1]([C:2]1([H:9])[C:3]([H:10])([H:11])[C:4]([H:12])([H:13])[C:5]1([H:14])[H:15])([H:6])([H:7])[H:8]>>[C:1]([C:2](=[C:3]([H:10])[H:11])[H:9])([H:6])([H:7])[H:8].[C:4](=[C:5]([H:14])[H:15])([H:12])[H:13]"
C        1.62492978      -0.07173319      -0.04839559
C        0.27542914      -0.02108140       0.60261455
C       -0.42103224      -1.25018527       0.79394468
C       -1.29467443       0.07822421      -0.46353215
C       -0.62527176       1.31828223      -0.69367896
H        2.04722560       0.91778902      -0.21281540
H        2.27358658      -0.65398643       0.61549480
H        1.57815786      -0.60221487      -1.00115913
H        0.18329737       0.69116208       1.41227596
H       -0.17099947      -2.10990153       0.18971717
H       -1.09287523      -1.38114744       1.62762987
H       -2.20984086       0.09183018       0.11320321
H       -1.31296049      -0.63417173      -1.27759533
H       -0.86385371       2.18745488      -0.10078209
H        0.00888182       1.43967926      -1.55692156
15
Frame=1 idx=001705 GeodesicLength=0.09517702979369805 rxn_smarts="[C:1]([C:2]1([H:9])[C:3]([H:10])([H:11])[C:4]([H:12])([H:13])[C:5]1([H:14])[H:15])([H:6])([H:7])[H:8]>>[C:1]([C:2](=[C:3]([H:10])[H:11])[H:9])([H:6])([H:7])[H:8].[C:4](=[C:5]([H:14])[H:15])([H:12])[H:13]"
C        1.64120177      -0.06962028      -0.03361567
C        0.28450941      -0.02425956       0.60378883
C       -0.41813914      -1.25267076       0.77601361
C       -1.32570559       0.08921085      -0.46133125
C       -0.62869576       1.31125623      -0.70166368
H        2.05929637       0.92277479      -0.19336627
H        2.29124547      -0.64488787       0.63471165
H        1.60595125      -0.59931622      -0.98735593
H        0.19289004       0.67484241       1.42583797
H       -0.16181909      -2.10576640       0.16403108
H       -1.07124121      -1.40572452       1.62132429
H       -2.23379228       0.12739956       0.12617974
H       -1.37463960      -0.62920001      -1.26905402
H       -0.86283704       2.19882097      -0.13399850
H        0.00177539       1.40714082      -1.57150186
15
Frame=2 idx=001705 GeodesicLength=0.19011094119519195 rxn_smarts="[C:1]([C:2]1([H:9])[C:3]([H:10])([H:11])[C:4]([H:12])([H:13])[C:5]1([H:14])[H:15])([H:6])([H:7])[H:8]>>[C:1]([C:2](=[C:3]([H:10])[H:11])[H:9])([H:6])([H:7])[H:8].[C:4](=[C:5]([H:14])[H:15])([H:12])[H:13]"
C        1.65790745      -0.06709806      -0.01801984
C        0.29396309      -0.02749751       0.60526491
C       -0.41502330      -1.25503954       0.75692263
C       -1.35772070       0.10090460      -0.45799827
C       -0.63226708       1.30316703      -0.71020670
H        2.07129347       0.92834295      -0.17304858
H        2.30911495      -0.63528807       0.65493986
H        1.63482306      -0.59587189      -0.97269063
H        0.20230262       0.65759702       1.43996554
H       -0.15247231      -2.10055317       0.13604516
H       -1.04881061      -1.43184718       1.61283016
H       -2.25758921       0.16514595       0.14058316
H       -1.43857270      -0.62353915      -1.25799638
H       -0.86088755       2.20975575      -0.17018094
H       -0.00606117       1.37182129      -1.58641010
15
Frame=3 idx=001705 GeodesicLength=0.2847709332781775 rxn_smarts="[C:1]([C:2]1([H:9])[C:3]([H:10])([H:11])[C:4]([H:12])([H:13])[C:5]1([H:14])[H:15])([H:6])([H:7])[H:8]>>[C:1]([C:2](=[C:3]([H:10])[H:11])[H:9])([H:6])([H:7])[H:8].[C:4](=[C:5]([H:14])[H:15])([H:12])[H:13]"
C        1.67502356      -0.06416947      -0.00161812
C        0.30382891      -0.03079468       0.60712183
C       -0.41168425      -1.25719208       0.73667950
C       -1.39065186       0.11334108      -0.45349887
C       -0.63604810       1.29392978      -0.71926765
H        2.08317926       0.93448561      -0.15188959
H        2.32719471      -0.62521969       0.67611687
H        1.66467051      -0.59184830      -0.95717082
H        0.21158342       0.63937376       1.45472263
H       -0.14298520      -2.09408798       0.10574095
H       -1.02568199      -1.45942869       1.60194232
H       -2.28111873       0.20511428       0.15626760
H       -1.50450597      -0.61713191      -1.24422725
H       -0.85808055       2.21999660      -0.20945425
H       -0.01472372       1.33363168      -1.60146515
15
Frame=4 idx=001705 GeodesicLength=0.37913937644279977 rxn_smarts="[C:1]([C:2]1([H:9])[C:3]([H:10])([H:11])[C:4]([H:12])([H:13])[C:5]1([H:14])[H:15])([H:6])([H:7])[H:8]>>[C:1]([C:2](=[C:3]([H:10])[H:11])[H:9])([H:6])([H:7])[H:8].[C:4](=[C:5]([H:14])[H:15])([H:12])[H:13]"
C        1.69252031      -0.06084669       0.01555761
C        0.31414871      -0.03415308       0.60944403
C       -0.40812650      -1.25902039       0.71532288
C       -1.42440759       0.12654268      -0.44782344
C       -0.64011139       1.28347647      -0.72877052
H        2.09491939       0.94118077      -0.12993398
H        2.34549204      -0.61473432       0.69813968
H        1.69535595      -0.58721251      -0.94083317
H        0.22080141       0.62011661       1.47017873
H       -0.13338197      -2.08619657       0.07316368
H       -1.00199103      -1.48832878       1.58847884
H       -2.30427981       0.24733071       0.17299984
H       -1.57210577      -0.60995768      -1.22758802
H       -0.85452349       2.22925340      -0.25189650
H       -0.02431025       1.29254939      -1.61643965
15
Frame=5 idx=001705 GeodesicLength=0.47321917526919777 rxn_smarts="[C:1]([C:2]1([H:9])[C:3]([H:10])([H:11])[C:4]([H:12])([H:13])[C:5]1([H:14])[H:15])([H:6])([H:7])[H:8]>>[C:1]([C:2](=[C:3]([H:10])[H:11])[H:9])([H:6])([H:7])[H:8].[C:4](=[C:5]([H:14])[H:15])([H:12])[H:13]"
C        1.71036593      -0.05716515       0.03344414
C        0.32497256      -0.03757681       0.61231700
C       -0.40436201      -1.26039225       0.69293942
C       -1.45886152       0.14052682      -0.44100991
C       -0.64452747       1.27177309      -0.73860510
H        2.10649018       0.94837469      -0.10726053
H        2.36402106      -0.60391467       0.72085648
H        1.72669687      -0.58194978      -0.92375127
H        0.23006525       0.59977442       1.48639283
H       -0.12369300      -2.07670254       0.03845736
H       -0.97791398      -1.51832235       1.57231179
H       -2.32702666       0.29174759       0.19045980
H       -1.64092537      -0.60203633      -1.20801871
H       -0.85040201       2.23720748      -0.29748043
H       -0.03489982       1.24865580      -1.63105286
15
Frame=6 idx=001705 GeodesicLength=0.5669625493715402 rxn_smarts="[C:1]([C:2]1([H:9])[C:3]([H:10])([H:11])[C:4]([H:12])([H:13])[C:5]1([H:14])[H:15])([H:6])([H:7])[H:8]>>[C:1]([C:2](=[C:3]([H:10])[H:11])[H:9])([H:6])([H:7])[H:8].[C:4](=[C:5]([H:14])[H:15])([H:12])[H:13]"
C        1.72850596      -0.05318008       0.05193687
C        0.33633421      -0.04107425       0.61581577
C       -0.40040774      -1.26118363       0.66967101
C       -1.49385245       0.15528323      -0.43314114
C       -0.64938671       1.25883460      -0.74860171
H        2.11787068       0.95598915      -0.08397479
H        2.38279612      -0.59287260       0.74405620
H        1.75845591      -0.57605866      -0.90605033
H        0.23950011       0.57828220       1.50341457
H       -0.11395116      -2.06549155       0.00188139
H       -0.95364611      -1.54912153       1.55339927
H       -2.34930527       0.33830376       0.20814984
H       -1.71037524      -0.59340795      -1.18548698
H       -0.84596397       2.24352048      -0.34610326
H       -0.04657434       1.20217683      -1.64496670
15
Frame=7 idx=001705 GeodesicLength=0.6603624429785341 rxn_smarts="[C:1]([C:2]1([H:9])[C:3]([H:10])([H:11])[C:4]([H:12])([H:13])[C:5]1([H:14])[H:15])([H:6])([H:7])[H:8]>>[C:1]([C:2](=[C:3]([H:10])[H:11])[H:9])([H:6])([H:7])[H:8].[C:4](=[C:5]([H:14])[H:15])([H:12])[H:13]"
C        1.74688798      -0.04897686       0.07089331
C        0.34827832      -0.04465804       0.62000580
C       -0.39629108      -1.26124950       0.64572930
C       -1.52920060       0.17077969      -0.42437950
C       -0.65477548       1.24473522      -0.75854214
H        2.12906625       0.96390278      -0.06022595
H        2.40184053      -0.58176113       0.76746780
H        1.79035415      -0.56956309      -0.88789909
H        0.24928166       0.55558118       1.52127104
H       -0.10419195      -2.05247617      -0.03616956
H       -0.92941818      -1.58033918       1.53180121
H       -2.37114568       0.38682392       0.22545694
H       -1.77976900      -0.58416128      -1.16009954
H       -0.84154463       2.24786414      -0.39750931
H       -0.05937231       1.15349833      -1.65780032
15
Frame=8 idx=001705 GeodesicLength=0.7534316237261578 rxn_smarts="[C:1]([C:2]1([H:9])[C:3]([H:10])([H:11])[C:4]([H:12])([H:13])[C:5]1([H:14])[H:15])([H:6])([H:7])[H:8]>>[C:1]([C:2](=[C:3]([H:10])[H:11])[H:9])([H:6])([H:7])[H:8].[C:4](=[C:5]([H:14])[H:15])([H:12])[H:13]"
C        1.76545857      -0.04465667       0.09014256
C        0.36084300      -0.04834702       0.62493224
C       -0.39203095      -1.26047109       0.62136900
C       -1.56471834       0.18695719      -0.41492725
C       -0.66077504       1.22961190      -0.76816162
H        2.14009468       0.97198105      -0.03616858
H        2.42118549      -0.57075082       0.79078664
H        1.82209530      -0.56249762      -0.86950143
H        0.25960225       0.53161244       1.53996093
H       -0.09443488      -2.03764514      -0.07520647
H       -0.90545396      -1.61155774       1.50768512
H       -2.39267001       0.43712502       0.24168237
H       -1.84840955      -0.57445142      -1.13207969
H       -0.83748693       2.24995588      -0.45135118
H       -0.07329965       1.10313405      -1.66916265
15
Frame=9 idx=001705 GeodesicLength=0.846096331985876 rxn_smarts="[C:1]([C:2]1([H:9])[C:3]([H:10])([H:11])[C:4]([H:12])([H:13])[C:5]1([H:14])[H:15])([H:6])([H:7])[H:8]>>[C:1]([C:2](=[C:3]([H:10])[H:11])[H:9])([H:6])([H:7])[H:8].[C:4](=[C:5]([H:14])[H:15])([H:12])[H:13]"
C        1.78415245      -0.04031009       0.10952627
C        0.37395328      -0.05211739       0.63057331
C       -0.38765248      -1.25877738       0.59684288
C       -1.60026838       0.20366869      -0.40504016
C       -0.66748137       1.21370839      -0.77727203
H        2.15100959       0.98010288      -0.01188119
H        2.44085286      -0.56000113       0.81377603
H        1.85342422      -0.55492991      -0.85110044
H        0.27051162       0.50635278       1.55946985
H       -0.08468358      -2.02110563      -0.11474773
H       -0.88177062      -1.64240640       1.48132724
H       -2.41386636       0.48881142       0.25593906
H       -1.91598879      -0.56441016      -1.10146936
H       -0.83390140       2.24975803      -0.50712577
H       -0.08829103       1.05165589      -1.67881796
15
Frame=10 idx=001705 GeodesicLength=0.9384656450548888 rxn_smarts="[C:1]([C:2]1([H:9])[C:3]([H:10])([H:11])[C:4]([H:12])([H:13])[C:5]1([H:14])[H:15])([H:6])([H:7])[H:8]>>[C:1]([C:2](=[C:3]([H:10])[H:11])[H:9])([H:6])([H:7])[H:8].[C:4](=[C:5]([H:14])[H:15])([H:12])[H:13]"
C        1.80295128      -0.03609169       0.12883916
C        0.38771047      -0.05600229       0.63696667
C       -0.38318353      -1.25604227       0.57249701
C       -1.63568539       0.22088892      -0.39496074
C       -0.67492501       1.19723329      -0.78554390
H        2.16187954       0.98805991       0.01239875
H        2.46089909      -0.54973090       0.83607982
H        1.88404300      -0.54695636      -0.83291426
H        0.28234518       0.47979038       1.57972048
H       -0.07498047      -2.00290787      -0.15415148
H       -0.85868750      -1.67242361       1.45307822
H       -2.43515644       0.54162111       0.26763938
H       -1.98155664      -0.55425893      -1.06894147
H       -0.83133501       2.24704304      -0.56431662
H       -0.10431857       0.99977728      -1.68639104
15
Frame=11 idx=001705 GeodesicLength=1.0305621449101354 rxn_smarts="[C:1]([C:2]1([H:9])[C:3]([H:10])([H:11])[C:4]([H:12])([H:13])[C:5]1([H:14])[H:15])([H:6])([H:7])[H:8]>>[C:1]([C:2](=[C:3]([H:10])[H:11])[H:9])([H:6])([H:7])[H:8].[C:4](=[C:5]([H:14])[H:15])([H:12])[H:13]"
C        1.82183453      -0.03212542       0.14790163
C        0.40212170      -0.06000771       0.64408788
C       -0.37864631      -1.25220190       0.54864821
C       -1.67086093       0.23851626      -0.38498531
C       -0.68314658       1.18046230      -0.79272822
H        2.17280048       0.99568044       0.03651467
H        2.48137731      -0.54012365       0.85742100
H        1.91372682      -0.53867593      -0.81518112
H        0.29530398       0.45193064       1.60062196
H       -0.06534773      -1.98323048      -0.19283207
H       -0.83633793      -1.70119462       1.42336034
H       -2.45684792       0.59519358       0.27605988
H       -2.04460457      -0.54419244      -1.03494106
H       -0.83009560       2.24174920      -0.62228215
H       -0.12127724       0.94821975      -1.69166566
15
Frame=12 idx=001705 GeodesicLength=1.1224357596466321 rxn_smarts="[C:1]([C:2]1([H:9])[C:3]([H:10])([H:11])[C:4]([H:12])([H:13])[C:5]1([H:14])[H:15])([H:6])([H:7])[H:8]>>[C:1]([C:2](=[C:3]([H:10])[H:11])[H:9])([H:6])([H:7])[H:8].[C:4](=[C:5]([H:14])[H:15])([H:12])[H:13]"
C        1.84080027      -0.02852328       0.16655501
C        0.41719224      -0.06413598       0.65189644
C       -0.37404865      -1.24722604       0.52558153
C       -1.70575184       0.25644579      -0.37538439
C       -0.69217366       1.16367868      -0.79859656
H        2.18387681       1.00281769       0.06034500
H        2.50234527      -0.53133534       0.87757009
H        1.94231067      -0.53018049      -0.79810376
H        0.30955894       0.42278203       1.62206156
H       -0.05579593      -1.96227710      -0.23027755
H       -0.81479709      -1.72839275       1.39261225
H       -2.47929208       0.64920281       0.28057787
H       -2.10480364      -0.53442458      -0.99991980
H       -0.83037815       2.23392704      -0.68042210
H       -0.13904316       0.89764154      -1.69449559
15
Frame=13 idx=001705 GeodesicLength=1.2140355558357911 rxn_smarts="[C:1]([C:2]1([H:9])[C:3]([H:10])([H:11])[C:4]([H:12])([H:13])[C:5]1([H:14])[H:15])([H:6])([H:7])[H:8]>>[C:1]([C:2](=[C:3]([H:10])[H:11])[H:9])([H:6])([H:7])[H:8].[C:4](=[C:5]([H:14])[H:15])([H:12])[H:13]"
C        1.85987255      -0.02537669       0.18466382
C        0.43288279      -0.06834346       0.66033884
C       -0.36943478      -1.24109551       0.50353143
C       -1.74035475       0.27450961      -0.36641734
C       -0.70208572       1.14717457      -0.80298000
H        2.19526252       1.00936554       0.08381512
H        2.52389136      -0.52349281       0.89635603
H        1.96969691      -0.52159329      -0.78188089
H        0.32521224       0.39241108       1.64396102
H       -0.04637697      -1.94028498      -0.26607234
H       -0.79408985      -1.75376706       1.36123887
H       -2.50265891       0.70317248       0.28039712
H       -2.16206263      -0.52507909      -0.96403653
H       -0.83223183       2.22376018      -0.73808363
H       -0.15752291       0.84863942      -1.69483150
15
Frame=14 idx=001705 GeodesicLength=1.3055134387795668 rxn_smarts="[C:1]([C:2]1([H:9])[C:3]([H:10])([H:11])[C:4]([H:12])([H:13])[C:5]1([H:14])[H:15])([H:6])([H:7])[H:8]>>[C:1]([C:2](=[C:3]([H:10])[H:11])[H:9])([H:6])([H:7])[H:8].[C:4](=[C:5]([H:14])[H:15])([H:12])[H:13]"
C        1.87909921      -0.02276306       0.20214215
C        0.44924461      -0.07266331       0.66935616
C       -0.36477032      -1.23382865       0.48270974
C       -1.77473654       0.29269522      -0.35825946
C       -0.71280877       1.13118437      -0.80573352
H        2.20706451       1.01521433       0.10685433
H        2.54606654      -0.51668854       0.91365730
H        1.99587284      -0.51297698      -0.76661852
H        0.34243312       0.36081606       1.66614011
H       -0.03706971      -1.91742992      -0.29988264
H       -0.77425202      -1.77714267       1.32963982
H       -2.52754944       0.75697707       0.27536270
H       -2.21626814      -0.51637632      -0.92787533
H       -0.83576096       2.21132208      -0.79480800
H       -0.17656494       0.80166033      -1.69268483
15
Frame=15 idx=001705 GeodesicLength=1.396886005541168 rxn_smarts="[C:1]([C:2]1([H:9])[C:3]([H:10])([H:11])[C:4]([H:12])([H:13])[C:5]1([H:14])[H:15])([H:6])([H:7])[H:8]>>[C:1]([C:2](=[C:3]([H:10])[H:11])[H:9])([H:6])([H:7])[H:8].[C:4](=[C:5]([H:14])[H:15])([H:12])[H:13]"
C        1.89853114      -0.02073705       0.21890888
C        0.46627563      -0.07707546       0.67888911
C       -0.36006561      -1.22544130       0.46328348
C       -1.80899021       0.31090852      -0.35109720
C       -0.72435294       1.11592015      -0.80676218
H        2.21941745       1.02029410       0.12940904
H        2.56895052      -0.51098200       0.92938987
H        2.02085347      -0.50441645      -0.75242644
H        0.36131751       0.32806776       1.68846995
H       -0.02791565      -1.89391070      -0.33146268
H       -0.75527389      -1.79838541       1.29818279
H       -2.55429534       0.81030201       0.26506179
H       -2.26750740      -0.50843669      -0.89171061
H       -0.84088124       2.19681685      -0.85002252
H       -0.19606344       0.75707567      -1.68811328
15
Frame=16 idx=001705 GeodesicLength=1.4881867008369616 rxn_smarts="[C:1]([C:2]1([H:9])[C:3]([H:10])([H:11])[C:4]([H:12])([H:13])[C:5]1([H:14])[H:15])([H:6])([H:7])[H:8]>>[C:1]([C:2](=[C:3]([H:10])[H:11])[H:9])([H:6])([H:7])[H:8].[C:4](=[C:5]([H:14])[H:15])([H:12])[H:13]"
C        1.91823702      -0.01933323       0.23490914
C        0.48398454      -0.08155252       0.68888603
C       -0.35532289      -1.21595383       0.44537899
C       -1.84324535       0.32905878      -0.34508015
C       -0.73672376       1.10156489      -0.80599365
H        2.23246361       1.02456964       0.15145511
H        2.59262141      -0.50640982       0.94349565
H        2.04469465      -0.49598132      -0.73937667
H        0.38193648       0.29423041       1.71082895
H       -0.01895712      -1.86989062      -0.36066622
H       -0.73712562      -1.81743491       1.26717955
H       -2.58320814       0.86285772       0.24912147
H       -2.31601847      -0.50135203      -0.85570667
H       -0.84742191       2.18048057      -0.90323669
H       -0.21591446       0.71514626      -1.68119483
