15
Frame=0 idx=011303 GeodesicLength=0.0 rxn_smarts="[O:1]([C:2]([C:3]([O:4][C:5]([C:6]#[C:7][H:15])([H:13])[H:14])([H:11])[H:12])([H:9])[H:10])[H:8]>>[O:1]([C:2]([C:3]([O:4]/[C:5](=[C:6](\[C:7][H:15])[H:14])[H:13])([H:11])[H:12])([H:9])[H:10])[H:8]"
O       -2.60083621       0.98061326       0.16697187
C       -2.19457855      -0.30852395       0.55178164
C       -0.97871569      -0.77545054      -0.21266668
O        0.11209262       0.07617453       0.16021842
C        1.16082399       0.11218802      -0.64560930
C        2.38979134       0.58840383      -0.22601956
C        3.19999355       1.43176438       0.33083502
H       -1.91327323       1.60253660       0.41697772
H       -3.02404735      -0.98356207       0.33341442
H       -1.98993948      -0.36362770       1.62776692
H       -1.15303037      -0.69372254      -1.28954551
H       -0.72655285      -1.80911207       0.04375490
H        1.03802582      -0.33130711      -1.63174601
H        2.57142714      -0.58499934      -0.42554079
H        4.10881930       1.05862475       0.79940694
15
Frame=1 idx=011303 GeodesicLength=0.0519089416419118 rxn_smarts="[O:1]([C:2]([C:3]([O:4][C:5]([C:6]#[C:7][H:15])([H:13])[H:14])([H:11])[H:12])([H:9])[H:10])[H:8]>>[O:1]([C:2]([C:3]([O:4]/[C:5](=[C:6](\[C:7][H:15])[H:14])[H:13])([H:11])[H:12])([H:9])[H:10])[H:8]"
O       -2.56177117       1.00188911       0.17662577
C       -2.19002002      -0.30066008       0.55016314
C       -0.98141769      -0.78896339      -0.21346776
O        0.12272834       0.03914315       0.16943801
C        1.16407540       0.08244173      -0.64722769
C        2.38643787       0.58782026      -0.23876290
C        3.15609805       1.44871006       0.34639859
H       -1.85837235       1.60397259       0.43397207
H       -3.03464298      -0.95333255       0.32174927
H       -1.99197061      -0.37142142       1.62649244
H       -1.15301197      -0.70104899      -1.29040890
H       -0.74876718      -1.82809614       0.03927765
H        1.03382697      -0.33697717      -1.64296273
H        2.57412488      -0.59675224      -0.43910888
H        4.08268246       1.11327508       0.80782191
15
Frame=2 idx=011303 GeodesicLength=0.10417888168459893 rxn_smarts="[O:1]([C:2]([C:3]([O:4][C:5]([C:6]#[C:7][H:15])([H:13])[H:14])([H:11])[H:12])([H:9])[H:10])[H:8]>>[O:1]([C:2]([C:3]([O:4]/[C:5](=[C:6](\[C:7][H:15])[H:14])[H:13])([H:11])[H:12])([H:9])[H:10])[H:8]"
O       -2.52185730       1.02226479       0.18603921
C       -2.18486231      -0.29256865       0.54849759
C       -0.98399416      -0.80233707      -0.21432503
O        0.13306670       0.00198264       0.17826916
C        1.16745365       0.05307884      -0.64847119
C        2.38235993       0.58641358      -0.24908947
C        3.11156508       1.46383696       0.36133324
H       -1.80317791       1.60413672       0.45041944
H       -3.04402403      -0.92252914       0.31038728
H       -1.99381176      -0.37842809       1.62502105
H       -1.15269818      -0.70844942      -1.29133159
H       -0.77096177      -1.84652152       0.03489208
H        1.02937703      -0.34048927      -1.65376721
H        2.57639687      -0.60910367      -0.45281112
H        4.05516815       1.16871329       0.81493655
15
Frame=3 idx=011303 GeodesicLength=0.1566946366658317 rxn_smarts="[O:1]([C:2]([C:3]([O:4][C:5]([C:6]#[C:7][H:15])([H:13])[H:14])([H:11])[H:12])([H:9])[H:10])[H:8]>>[O:1]([C:2]([C:3]([O:4]/[C:5](=[C:6](\[C:7][H:15])[H:14])[H:13])([H:11])[H:12])([H:9])[H:10])[H:8]"
O       -2.48167780       1.04131727       0.19485276
C       -2.17886067      -0.28432490       0.54707395
C       -0.98615654      -0.81542829      -0.21500593
O        0.14311475      -0.03435585       0.18618955
C        1.17081680       0.02485249      -0.65008708
C        2.37784102       0.58427427      -0.25781176
C        3.06726790       1.47683069       0.37517021
H       -1.74848629       1.60315392       0.46543243
H       -3.05169917      -0.89184115       0.30020382
H       -1.99482673      -0.38403009       1.62365236
H       -1.15214838      -0.71642913      -1.29208690
H       -0.79225240      -1.86401656       0.03133209
H        1.02425436      -0.34114176      -1.66470203
H        2.57786295      -0.62201708      -0.46767834
H        4.02495021       1.22315617       0.82346487
15
Frame=4 idx=011303 GeodesicLength=0.20973325606245335 rxn_smarts="[O:1]([C:2]([C:3]([O:4][C:5]([C:6]#[C:7][H:15])([H:13])[H:14])([H:11])[H:12])([H:9])[H:10])[H:8]>>[O:1]([C:2]([C:3]([O:4]/[C:5](=[C:6](\[C:7][H:15])[H:14])[H:13])([H:11])[H:12])([H:9])[H:10])[H:8]"
O       -2.44063023       1.05949065       0.20328334
C       -2.17212746      -0.27583694       0.54570522
C       -0.98812192      -0.82845300      -0.21564162
O        0.15297570      -0.07071817       0.19354577
C        1.17418942      -0.00279082      -0.65181418
C        2.37277725       0.58151311      -0.26481831
C        3.02246141       1.48813895       0.38869154
H       -1.69345941       1.60103777       0.47965552
H       -3.05806958      -0.86068265       0.29057284
H       -1.99534334      -0.38864376       1.62223234
H       -1.15141128      -0.72480750      -1.29280995
H       -0.81333290      -1.88098439       0.02818387
H        1.01866196      -0.33966295      -1.67533006
H        2.57884881      -0.63536236      -0.48323360
H        3.99258158       1.27776206       0.83177727
15
Frame=5 idx=011303 GeodesicLength=0.2637560625558141 rxn_smarts="[O:1]([C:2]([C:3]([O:4][C:5]([C:6]#[C:7][H:15])([H:13])[H:14])([H:11])[H:12])([H:9])[H:10])[H:8]>>[O:1]([C:2]([C:3]([O:4]/[C:5](=[C:6](\[C:7][H:15])[H:14])[H:13])([H:11])[H:12])([H:9])[H:10])[H:8]"
O       -2.39727758       1.07749966       0.21214956
C       -2.16430292      -0.26677626       0.54449992
C       -0.99006289      -0.84163925      -0.21649743
O        0.16309351      -0.10841487       0.20030025
C        1.17771748      -0.03089489      -0.65401678
C        2.36697427       0.57831388      -0.27109035
C        2.97619347       1.49908564       0.40028612
H       -1.63622353       1.59774125       0.49418392
H       -3.06326431      -0.82785507       0.28134603
H       -1.99499582      -0.39265058       1.62080676
H       -1.15073794      -0.73321439      -1.29369947
H       -0.83512817      -1.89787982       0.02470145
H        1.01287058      -0.33794169      -1.68565000
H        2.57999880      -0.64896492      -0.49944579
H        3.95514506       1.33359131       0.84212581
15
Frame=6 idx=011303 GeodesicLength=0.31899041440051773 rxn_smarts="[O:1]([C:2]([C:3]([O:4][C:5]([C:6]#[C:7][H:15])([H:13])[H:14])([H:11])[H:12])([H:9])[H:10])[H:8]>>[O:1]([C:2]([C:3]([O:4]/[C:5](=[C:6](\[C:7][H:15])[H:14])[H:13])([H:11])[H:12])([H:9])[H:10])[H:8]"
O       -2.35151941       1.09533163       0.22145099
C       -2.15570898      -0.25721323       0.54310265
C       -0.99226067      -0.85506584      -0.21775624
O        0.17316948      -0.14801959       0.20694130
C        1.18133280      -0.05951737      -0.65585327
C        2.36017545       0.57451685      -0.27510704
C        2.92789424       1.50911164       0.41234482
H       -1.57663706       1.59295392       0.50921721
H       -3.06759226      -0.79311129       0.27175237
H       -1.99449148      -0.39646385       1.61903086
H       -1.15000636      -0.74130866      -1.29495209
H       -0.85825577      -1.91486133       0.02035797
H        1.00717481      -0.33578505      -1.69489669
H        2.58122710      -0.66284364      -0.51524264
H        3.91549812       1.39227581       0.84960981
15
Frame=7 idx=011303 GeodesicLength=0.3753767490570194 rxn_smarts="[O:1]([C:2]([C:3]([O:4][C:5]([C:6]#[C:7][H:15])([H:13])[H:14])([H:11])[H:12])([H:9])[H:10])[H:8]>>[O:1]([C:2]([C:3]([O:4]/[C:5](=[C:6](\[C:7][H:15])[H:14])[H:13])([H:11])[H:12])([H:9])[H:10])[H:8]"
O       -2.30401346       1.11249214       0.23070759
C       -2.14581257      -0.24713856       0.54203915
C       -0.99420067      -0.86841720      -0.21905355
O        0.18336670      -0.18794784       0.21246931
C        1.18497261      -0.08776545      -0.65863691
C        2.35287178       0.57030354      -0.27866862
C        2.87847350       1.51833169       0.42279760
H       -1.51574032       1.58698511       0.52370484
H       -3.07018842      -0.75732915       0.26321987
H       -1.99263231      -0.39907931       1.61745057
H       -1.14934574      -0.74978096      -1.29621159
H       -0.88130335      -1.93126549       0.01636843
H        1.00113454      -0.33293218      -1.70409778
H        2.58213581      -0.67698517      -0.53212293
H        3.87028190       1.45052883       0.86003403
15
Frame=8 idx=011303 GeodesicLength=0.4330859667872283 rxn_smarts="[O:1]([C:2]([C:3]([O:4][C:5]([C:6]#[C:7][H:15])([H:13])[H:14])([H:11])[H:12])([H:9])[H:10])[H:8]>>[O:1]([C:2]([C:3]([O:4]/[C:5](=[C:6](\[C:7][H:15])[H:14])[H:13])([H:11])[H:12])([H:9])[H:10])[H:8]"
O       -2.25485823       1.12893307       0.23989560
C       -2.13512302      -0.23672297       0.54083821
C       -0.99623030      -0.88179347      -0.22059338
O        0.19328242      -0.22879443       0.21756113
C        1.18852285      -0.11560992      -0.66125085
C        2.34487234       0.56536532      -0.27977684
C        2.82767205       1.52575055       0.43464246
H       -1.45359026       1.57949633       0.53791527
H       -3.07153421      -0.72037512       0.25470210
H       -1.99041164      -0.40110317       1.61561861
H       -1.14859671      -0.75823075      -1.29770410
H       -0.90495084      -1.94730804       0.01210753
H        0.99502192      -0.32876551      -1.71230436
H        2.58255662      -0.69149884      -0.54889151
H        3.82336703       1.51065694       0.86724013
15
Frame=9 idx=011303 GeodesicLength=0.4933224969843621 rxn_smarts="[O:1]([C:2]([C:3]([O:4][C:5]([C:6]#[C:7][H:15])([H:13])[H:14])([H:11])[H:12])([H:9])[H:10])[H:8]>>[O:1]([C:2]([C:3]([O:4]/[C:5](=[C:6](\[C:7][H:15])[H:14])[H:13])([H:11])[H:12])([H:9])[H:10])[H:8]"
O       -2.20147692       1.14555718       0.25030207
C       -2.12258672      -0.22526674       0.53998205
C       -0.99840109      -0.89536735      -0.22268509
O        0.20371602      -0.27230711       0.22166196
C        1.19232974      -0.14469066      -0.66470021
C        2.33570645       0.56016062      -0.28066176
C        2.77353308       1.53395688       0.44368386
H       -1.38708251       1.57024734       0.55319707
H       -3.07117605      -0.68024033       0.24674535
H       -1.98659024      -0.40259426       1.61386797
H       -1.14814254      -0.76617538      -1.29961460
H       -0.93031852      -1.96331388       0.00675053
H        0.98924398      -0.32656368      -1.72018397
H        2.58360477      -0.70599158      -0.56584414
H        3.76764057       1.57258895       0.87749891
15
Frame=10 idx=011303 GeodesicLength=0.5571511301361568 rxn_smarts="[O:1]([C:2]([C:3]([O:4][C:5]([C:6]#[C:7][H:15])([H:13])[H:14])([H:11])[H:12])([H:9])[H:10])[H:8]>>[O:1]([C:2]([C:3]([O:4]/[C:5](=[C:6](\[C:7][H:15])[H:14])[H:13])([H:11])[H:12])([H:9])[H:10])[H:8]"
O       -2.14277671       1.16246993       0.26253168
C       -2.10824150      -0.21265436       0.53914705
C       -1.00112273      -0.90920519      -0.22578463
O        0.21439411      -0.31984560       0.22510970
C        1.19644003      -0.17562146      -0.66809676
C        2.32478248       0.55449048      -0.27971500
C        2.71450678       1.54217921       0.45248906
H       -1.31505485       1.55845756       0.57060895
H       -3.06920991      -0.63582985       0.23844890
H       -1.98176700      -0.40423127       1.61177275
H       -1.14789276      -0.77282016      -1.30234648
H       -0.95864485      -1.97942842      -0.00089448
H        0.98442723      -0.32692853      -1.72704295
H        2.58551330      -0.72043026      -0.58155260
H        3.70464640       1.63939791       0.88532482
15
Frame=11 idx=011303 GeodesicLength=0.6258425557328029 rxn_smarts="[O:1]([C:2]([C:3]([O:4][C:5]([C:6]#[C:7][H:15])([H:13])[H:14])([H:11])[H:12])([H:9])[H:10])[H:8]>>[O:1]([C:2]([C:3]([O:4]/[C:5](=[C:6](\[C:7][H:15])[H:14])[H:13])([H:11])[H:12])([H:9])[H:10])[H:8]"
O       -2.07791183       1.17957118       0.27678631
C       -2.09134736      -0.19857301       0.53871973
C       -1.00420047      -0.92308946      -0.22988222
O        0.22550809      -0.37134334       0.22720265
C        1.20097634      -0.20856063      -0.67215907
C        2.31185261       0.54867723      -0.27807196
C        2.64966805       1.55120634       0.45902776
H       -1.23678445       1.54386305       0.59005624
H       -3.06480157      -0.58664068       0.23067965
H       -1.97495053      -0.40550453       1.60965832
H       -1.14793487      -0.77808912      -1.30584059
H       -0.98980375      -1.99521500      -0.01064548
H        0.98077457      -0.33112163      -1.73357619
H        2.58850877      -0.73455047      -0.59625331
H        3.63044639       1.70937006       0.89429818
15
Frame=12 idx=011303 GeodesicLength=0.700485330669677 rxn_smarts="[O:1]([C:2]([C:3]([O:4][C:5]([C:6]#[C:7][H:15])([H:13])[H:14])([H:11])[H:12])([H:9])[H:10])[H:8]>>[O:1]([C:2]([C:3]([O:4]/[C:5](=[C:6](\[C:7][H:15])[H:14])[H:13])([H:11])[H:12])([H:9])[H:10])[H:8]"
O       -2.00716752       1.19630830       0.29251760
C       -2.07163876      -0.18305336       0.53882513
C       -1.00743932      -0.93680945      -0.23476843
O        0.23687620      -0.42606736       0.22760531
C        1.20584459      -0.24285542      -0.67703431
C        2.29685022       0.54280497      -0.27561698
C        2.57905767       1.56060774       0.46328366
H       -1.15284752       1.52626185       0.61050233
H       -3.05733657      -0.53310739       0.22403130
H       -1.96570767      -0.40584136       1.60768899
H       -1.14817397      -0.78225135      -1.30990362
H       -1.02322435      -2.01016125      -0.02183370
H        0.97813762      -0.33841807      -1.74009276
H        2.59228431      -0.74815771      -0.61020771
H        3.54448508       1.78073987       0.90500320
15
Frame=13 idx=011303 GeodesicLength=0.7800131167587034 rxn_smarts="[O:1]([C:2]([C:3]([O:4][C:5]([C:6]#[C:7][H:15])([H:13])[H:14])([H:11])[H:12])([H:9])[H:10])[H:8]>>[O:1]([C:2]([C:3]([O:4]/[C:5](=[C:6](\[C:7][H:15])[H:14])[H:13])([H:11])[H:12])([H:9])[H:10])[H:8]"
O       -1.93442174       1.21122939       0.30726226
C       -2.05024504      -0.16707986       0.53901367
C       -1.01054702      -0.95022649      -0.23969350
O        0.24756145      -0.48103841       0.22666690
C        1.21041383      -0.27570146      -0.68198712
C        2.28079983       0.53634047      -0.27008787
C        2.50644915       1.56642611       0.47063599
H       -1.06784638       1.50630145       0.62872251
H       -3.04704732      -0.47859913       0.21853151
H       -1.95490843      -0.40442135       1.60576569
H       -1.14826461      -0.78680255      -1.31402178
H       -1.05669897      -2.02377007      -0.03234439
H        0.97523966      -0.34307822      -1.74605576
H        2.59518164      -0.76145695      -0.62449794
H        3.45433394       1.85187706       0.91208982
15
Frame=14 idx=011303 GeodesicLength=0.866575208813622 rxn_smarts="[O:1]([C:2]([C:3]([O:4][C:5]([C:6]#[C:7][H:15])([H:13])[H:14])([H:11])[H:12])([H:9])[H:10])[H:8]>>[O:1]([C:2]([C:3]([O:4]/[C:5](=[C:6](\[C:7][H:15])[H:14])[H:13])([H:11])[H:12])([H:9])[H:10])[H:8]"
O       -1.85765464       1.22473791       0.32301581
C       -2.02699789      -0.15036597       0.53909255
C       -1.01396157      -0.96301219      -0.24551037
O        0.25742902      -0.53783898       0.22438635
C        1.21510035      -0.30864884      -0.68633555
C        2.26328985       0.52871145      -0.26062577
C        2.43007265       1.56860493       0.48149981
H       -0.97996597       1.48280281       0.64848731
H       -3.03385871      -0.42104001       0.21281789
H       -1.94323761      -0.40280072       1.60336926
H       -1.14814748      -0.78982620      -1.31887043
H       -1.09187871      -2.03587708      -0.04440115
H        0.97354953      -0.34780863      -1.75088828
H        2.59791111      -0.77504349      -0.63682589
H        3.35835005       1.92740503       0.91078848
15
Frame=15 idx=011303 GeodesicLength=0.9582243098146525 rxn_smarts="[O:1]([C:2]([C:3]([O:4][C:5]([C:6]#[C:7][H:15])([H:13])[H:14])([H:11])[H:12])([H:9])[H:10])[H:8]>>[O:1]([C:2]([C:3]([O:4]/[C:5](=[C:6](\[C:7][H:15])[H:14])[H:13])([H:11])[H:12])([H:9])[H:10])[H:8]"
O       -1.78162786       1.23611312       0.33531695
C       -2.00182752      -0.13333070       0.53981668
C       -1.01632071      -0.97516900      -0.25003696
O        0.26710434      -0.59119344       0.22007453
C        1.21937240      -0.33845770      -0.69243511
C        2.24592365       0.52138396      -0.25147089
C        2.35459593       1.56949274       0.48939575
H       -0.89400327       1.45900922       0.66214668
H       -3.01731692      -0.36528910       0.21029814
H       -1.92823084      -0.39724332       1.60207904
H       -1.14817939      -0.79520941      -1.32268547
H       -1.12409491      -2.04602556      -0.05220793
H        0.97039990      -0.34902886      -1.75645813
H        2.59934241      -0.78787763      -0.65201948
H        3.25486277       1.99282569       0.91818620
15
Frame=16 idx=011303 GeodesicLength=1.0558892739916534 rxn_smarts="[O:1]([C:2]([C:3]([O:4][C:5]([C:6]#[C:7][H:15])([H:13])[H:14])([H:11])[H:12])([H:9])[H:10])[H:8]>>[O:1]([C:2]([C:3]([O:4]/[C:5](=[C:6](\[C:7][H:15])[H:14])[H:13])([H:11])[H:12])([H:9])[H:10])[H:8]"
O       -1.70571746       1.24557435       0.34633146
C       -1.97549109      -0.11624750       0.54065283
C       -1.01831140      -0.98637273      -0.25434154
O        0.27602736      -0.64247433       0.21441012
C        1.22351834      -0.36621590      -0.69867281
C        2.22862908       0.51338277      -0.24008843
C        2.27939788       1.56766838       0.49781925
H       -0.80949915       1.43384348       0.67380965
H       -2.99823475      -0.31018537       0.20882817
H       -1.91170634      -0.39024017       1.60101789
H       -1.14817415      -0.80056491      -1.32635617
H       -1.15501975      -2.05429487      -0.05872254
H        0.96732072      -0.34795213      -1.76140035
H        2.59982087      -0.80090476      -0.66718158
H        3.14743984       2.05498368       0.92389404
