12
Frame=0 idx=004774 GeodesicLength=0.0 rxn_smarts="[C:1]([C:2]([C:3]([C:4]#[N:5])([H:11])[H:12])([H:9])[H:10])([H:6])([H:7])[H:8]>>[C:1]([C@:2]1([H:9])[C:3]([H:11])([H:12])/[C:4]1=[N:5]/[H:10])([H:6])([H:7])[H:8]"
C       -1.43697749       0.28454299       0.11231572
C       -0.06172159       0.25231603      -0.50311820
C        0.79785275      -1.02905739      -0.15674116
C        1.43604628       0.08788299       0.44558039
N        2.06274923       0.97515145       0.99795320
H       -1.92149374       1.24594551      -0.06536177
H       -2.09236123      -0.49779809      -0.28752044
H       -1.38709613       0.14682867       1.19647263
H        0.00676194       0.49377333      -1.56004353
H        0.96933919       1.28294945       0.29738527
H        0.31571560      -1.73875617       0.51089708
H        1.31118519      -1.50377874      -0.98781923
12
Frame=1 idx=004774 GeodesicLength=0.08094990422532511 rxn_smarts="[C:1]([C:2]([C:3]([C:4]#[N:5])([H:11])[H:12])([H:9])[H:10])([H:6])([H:7])[H:8]>>[C:1]([C@:2]1([H:9])[C:3]([H:11])([H:12])/[C:4]1=[N:5]/[H:10])([H:6])([H:7])[H:8]"
C       -1.43939695       0.28133920       0.10950757
C       -0.05871255       0.25543547      -0.49507437
C        0.79395901      -1.02893611      -0.15342508
C        1.45261739       0.08268914       0.44048336
N        2.07807720       0.97382029       0.98607119
H       -1.92322011       1.24385300      -0.06398123
H       -2.09008222      -0.49763848      -0.30369342
H       -1.39770681       0.13416084       1.19265597
H        0.01119941       0.49962514      -1.55157335
H        0.95982948       1.29818876       0.30289059
H        0.32016333      -1.73319163       0.52583726
H        1.29327281      -1.50934562      -0.98969848
12
Frame=2 idx=004774 GeodesicLength=0.16194007630711552 rxn_smarts="[C:1]([C:2]([C:3]([C:4]#[N:5])([H:11])[H:12])([H:9])[H:10])([H:6])([H:7])[H:8]>>[C:1]([C@:2]1([H:9])[C:3]([H:11])([H:12])/[C:4]1=[N:5]/[H:10])([H:6])([H:7])[H:8]"
C       -1.44178211       0.27812472       0.10665023
C       -0.05559329       0.25863618      -0.48671084
C        0.79008298      -1.02883827      -0.14995697
C        1.46947202       0.07707832       0.43512828
N        2.09328208       0.97255175       0.97357326
H       -1.92495107       1.24174201      -0.06258578
H       -2.08754554      -0.49733056      -0.32006259
H       -1.40850124       0.12132380       1.18863875
H        0.01574059       0.50551018      -1.54281053
H        0.95003996       1.31371905       0.30873293
H        0.32472552      -1.72759232       0.54075210
H        1.27503010      -1.51492485      -0.99134884
12
Frame=3 idx=004774 GeodesicLength=0.24275286052399214 rxn_smarts="[C:1]([C:2]([C:3]([C:4]#[N:5])([H:11])[H:12])([H:9])[H:10])([H:6])([H:7])[H:8]>>[C:1]([C@:2]1([H:9])[C:3]([H:11])([H:12])/[C:4]1=[N:5]/[H:10])([H:6])([H:7])[H:8]"
C       -1.44405802       0.27489058       0.10372922
C       -0.05236832       0.26188843      -0.47801698
C        0.78620096      -1.02870946      -0.14635343
C        1.48663254       0.07105227       0.42943871
N        2.10820223       0.97127806       0.96057691
H       -1.92660690       1.23953153      -0.06122036
H       -2.08469143      -0.49685857      -0.33657657
H       -1.41932919       0.10838478       1.18437222
H        0.02031970       0.51136539      -1.53372035
H        0.93991894       1.32948361       0.31491658
H        0.32941039      -1.72184643       0.55559620
H        1.25636911      -1.52046019      -0.99274215
12
Frame=4 idx=004774 GeodesicLength=0.323646492273992 rxn_smarts="[C:1]([C:2]([C:3]([C:4]#[N:5])([H:11])[H:12])([H:9])[H:10])([H:6])([H:7])[H:8]>>[C:1]([C@:2]1([H:9])[C:3]([H:11])([H:12])/[C:4]1=[N:5]/[H:10])([H:6])([H:7])[H:8]"
C       -1.44627899       0.27166383       0.10077933
C       -0.04901650       0.26520940      -0.46898988
C        0.78236109      -1.02862458      -0.14262315
C        1.50410606       0.06455096       0.42344714
N        2.12279803       0.97003321       0.94710853
H       -1.92825714       1.23731836      -0.05985011
H       -2.08156514      -0.49623708      -0.35320207
H       -1.43029433       0.09534289       1.17991695
H        0.02500378       0.51722666      -1.52433448
H        0.92951652       1.34563257       0.32130409
H        0.33421240      -1.71611417       0.57036305
H        1.23741421      -1.52600204      -0.99391938
12
Frame=5 idx=004774 GeodesicLength=0.40451959192284204 rxn_smarts="[C:1]([C:2]([C:3]([C:4]#[N:5])([H:11])[H:12])([H:9])[H:10])([H:6])([H:7])[H:8]>>[C:1]([C@:2]1([H:9])[C:3]([H:11])([H:12])/[C:4]1=[N:5]/[H:10])([H:6])([H:7])[H:8]"
C       -1.44838708       0.26843674       0.09779540
C       -0.04553433       0.26858774      -0.45961170
C        0.77854278      -1.02855733      -0.13876477
C        1.52186776       0.05753253       0.41712439
N        2.13695068       0.96877171       0.93321103
H       -1.92983962       1.23506130      -0.05848782
H       -2.07809402      -0.49545208      -0.36993254
H       -1.44130916       0.08220308       1.17525194
H        0.02975809       0.52307207      -1.51462813
H        0.91880783       1.36219186       0.32785432
H        0.33913196      -1.71034864       0.58505115
H        1.21810511      -1.53149899      -0.99486328
12
Frame=6 idx=004774 GeodesicLength=0.4853071244647524 rxn_smarts="[C:1]([C:2]([C:3]([C:4]#[N:5])([H:11])[H:12])([H:9])[H:10])([H:6])([H:7])[H:8]>>[C:1]([C@:2]1([H:9])[C:3]([H:11])([H:12])/[C:4]1=[N:5]/[H:10])([H:6])([H:7])[H:8]"
C       -1.45039425       0.26521090       0.09477841
C       -0.04191088       0.27202382      -0.44986735
C        0.77476432      -1.02850886      -0.13476504
C        1.53996281       0.05000819       0.41042975
N        2.15066305       0.96749150       0.91886966
H       -1.93135307       1.23277783      -0.05708849
H       -2.07429895      -0.49446528      -0.38681334
H       -1.45241974       0.06890709       1.17035724
H        0.03461496       0.52890391      -1.50458665
H        0.90775859       1.37917657       0.33454446
H        0.34419639      -1.70455252       0.59970055
H        1.19841677      -1.53697315      -0.99555920
12
Frame=7 idx=004774 GeodesicLength=0.5661046425247482 rxn_smarts="[C:1]([C:2]([C:3]([C:4]#[N:5])([H:11])[H:12])([H:9])[H:10])([H:6])([H:7])[H:8]>>[C:1]([C@:2]1([H:9])[C:3]([H:11])([H:12])/[C:4]1=[N:5]/[H:10])([H:6])([H:7])[H:8]"
C       -1.45226689       0.26199608       0.09173463
C       -0.03813745       0.27551029      -0.43974904
C        0.77103657      -1.02848340      -0.13064628
C        1.55842094       0.04192103       0.40330132
N        2.16377982       0.96612366       0.90421781
H       -1.93278780       1.23045928      -0.05569173
H       -2.07014391      -0.49329082      -0.40377080
H       -1.46354143       0.05553117       1.16523730
H        0.03954619       0.53470557      -1.49420426
H        0.89632463       1.39667013       0.34131356
H        0.34942294      -1.69871780       0.61426649
H        1.17834638      -1.54242519      -0.99600903
12
Frame=8 idx=004774 GeodesicLength=0.6468799166097513 rxn_smarts="[C:1]([C:2]([C:3]([C:4]#[N:5])([H:11])[H:12])([H:9])[H:10])([H:6])([H:7])[H:8]>>[C:1]([C@:2]1([H:9])[C:3]([H:11])([H:12])/[C:4]1=[N:5]/[H:10])([H:6])([H:7])[H:8]"
C       -1.45399055       0.25879724       0.08868092
C       -0.03420102       0.27904481      -0.42924830
C        0.76736787      -1.02849097      -0.12641707
C        1.57723150       0.03324060       0.39572977
N        2.17620858       0.96464200       0.88934333
H       -1.93412705       1.22811504      -0.05427937
H       -2.06561326      -0.49192703      -0.42078118
H       -1.47466104       0.04207934       1.15990878
H        0.04456536       0.54046780      -1.48348235
H        0.88450726       1.41475535       0.34803236
H        0.35480838      -1.69288581       0.62874137
H        1.15790396      -1.54783838      -0.99622825
12
Frame=9 idx=004774 GeodesicLength=0.727628611052202 rxn_smarts="[C:1]([C:2]([C:3]([C:4]#[N:5])([H:11])[H:12])([H:9])[H:10])([H:6])([H:7])[H:8]>>[C:1]([C@:2]1([H:9])[C:3]([H:11])([H:12])/[C:4]1=[N:5]/[H:10])([H:6])([H:7])[H:8]"
C       -1.45554492       0.25561809       0.08562375
C       -0.03008952       0.28262440      -0.41834973
C        0.76376863      -1.02853007      -0.12208052
C        1.59640830       0.02393248       0.38767723
N        2.18786922       0.96299413       0.87430645
H       -1.93535495       1.22574345      -0.05284736
H       -2.06068448      -0.49036204      -0.43783050
H       -1.48575003       0.02855642       1.15436831
H        0.04967371       0.54618315      -1.47240742
H        0.87225882       1.43350107       0.35462882
H        0.36036922      -1.68705792       0.64311914
H        1.13707599      -1.55320316      -0.99620817
12
Frame=10 idx=004774 GeodesicLength=0.8083504261122416 rxn_smarts="[C:1]([C:2]([C:3]([C:4]#[N:5])([H:11])[H:12])([H:9])[H:10])([H:6])([H:7])[H:8]>>[C:1]([C@:2]1([H:9])[C:3]([H:11])([H:12])/[C:4]1=[N:5]/[H:10])([H:6])([H:7])[H:8]"
C       -1.45691032       0.25246310       0.08257326
C       -0.02578965       0.28624724      -0.40703684
C        0.76025034      -1.02860253      -0.11764174
C        1.61595800       0.01395912       0.37911635
N        2.19867959       0.96112502       0.85917606
H       -1.93645685       1.22334564      -0.05138983
H       -2.05533553      -0.48858806      -0.45489961
H       -1.49678150       0.01496992       1.14861895
H        0.05487644       0.55184528      -1.46096686
H        0.85953361       1.45299068       0.36100829
H        0.36611836      -1.68124839       0.65738787
H        1.11585751      -1.55850702      -0.99594589
12
Frame=11 idx=004774 GeodesicLength=0.8890489553241295 rxn_smarts="[C:1]([C:2]([C:3]([C:4]#[N:5])([H:11])[H:12])([H:9])[H:10])([H:6])([H:7])[H:8]>>[C:1]([C@:2]1([H:9])[C:3]([H:11])([H:12])/[C:4]1=[N:5]/[H:10])([H:6])([H:7])[H:8]"
C       -1.45806726       0.24933703       0.07954075
C       -0.02128727       0.28991272      -0.39529039
C        0.75682519      -1.02870976      -0.11310535
C        1.63588461       0.00328119       0.37002882
N        2.20856447       0.95897417       0.84401488
H       -1.93741853       1.22092315      -0.04989888
H       -2.04954486      -0.48659570      -0.47197073
H       -1.50772994       0.00132547       1.14266468
H        0.06018109       0.55744863      -1.44914558
H        0.84627640       1.47331198       0.36706702
H        0.37206766      -1.67547586       0.67153243
H        1.09424844      -1.56373302      -0.99543764
12
Frame=12 idx=004774 GeodesicLength=0.9697420908785565 rxn_smarts="[C:1]([C:2]([C:3]([C:4]#[N:5])([H:11])[H:12])([H:9])[H:10])([H:6])([H:7])[H:8]>>[C:1]([C@:2]1([H:9])[C:3]([H:11])([H:12])/[C:4]1=[N:5]/[H:10])([H:6])([H:7])[H:8]"
C       -1.45900250       0.24624447       0.07653733
C       -0.01656503       0.29362302      -0.38308590
C        0.75350759      -1.02885733      -0.10847532
C        1.65619725      -0.00814257       0.36039943
N        2.21747444       0.95648862       0.82885628
H       -1.93823524       1.21847976      -0.04836922
H       -2.04329404      -0.48437966      -0.48903045
H       -1.51858410      -0.01237149       1.13650931
H        0.06560671       0.56299424      -1.43692365
H        0.83241993       1.49455868       0.37272456
H        0.37822280      -1.66976539       0.68553521
H        1.07225220      -1.56887235      -0.99467757
12
Frame=13 idx=004774 GeodesicLength=1.0503787901774293 rxn_smarts="[C:1]([C:2]([C:3]([C:4]#[N:5])([H:11])[H:12])([H:9])[H:10])([H:6])([H:7])[H:8]>>[C:1]([C@:2]1([H:9])[C:3]([H:11])([H:12])/[C:4]1=[N:5]/[H:10])([H:6])([H:7])[H:8]"
C       -1.45967086       0.24318840       0.07357956
C       -0.01160992       0.29737796      -0.37039848
C        0.75030220      -1.02903145      -0.10375907
C        1.67684588      -0.02036458       0.35025106
N        2.22529119       0.95356489       0.81377812
H       -1.93887324       1.21599785      -0.04680913
H       -2.03652463      -0.48193908      -0.50603726
H       -1.52927341      -0.02609819       1.13016720
H        0.07114194       0.56847478      -1.42427721
H        0.81791071       1.51682753       0.37781483
H        0.38458574      -1.66414031       0.69935924
H        1.04987440      -1.57385780      -0.99366886
12
Frame=14 idx=004774 GeodesicLength=1.1310117557815154 rxn_smarts="[C:1]([C:2]([C:3]([C:4]#[N:5])([H:11])[H:12])([H:9])[H:10])([H:6])([H:7])[H:8]>>[C:1]([C@:2]1([H:9])[C:3]([H:11])([H:12])/[C:4]1=[N:5]/[H:10])([H:6])([H:7])[H:8]"
C       -1.46008665       0.24017175       0.07067161
C       -0.00640743       0.30118293      -0.35718776
C        0.74722895      -1.02924316      -0.09893672
C        1.69785772      -0.03340716       0.33959457
N        2.23207227       0.95017631       0.79869794
H       -1.93933951       1.21350303      -0.04515930
H       -2.02924860      -0.47922542      -0.52305112
H       -1.53985845      -0.03992796       1.12361269
H        0.07683313       0.57389880      -1.41117200
H        0.80265331       1.54019811       0.38228902
H        0.39116890      -1.65862985       0.71302370
H        1.02712635      -1.57869737      -0.99238265
12
Frame=15 idx=004774 GeodesicLength=1.2116372275436982 rxn_smarts="[C:1]([C:2]([C:3]([C:4]#[N:5])([H:11])[H:12])([H:9])[H:10])([H:6])([H:7])[H:8]>>[C:1]([C@:2]1([H:9])[C:3]([H:11])([H:12])/[C:4]1=[N:5]/[H:10])([H:6])([H:7])[H:8]"
C       -1.46022895       0.23718909       0.06780436
C       -0.00094165       0.30505120      -0.34339448
C        0.74428913      -1.02947832      -0.09397428
C        1.71921663      -0.04732289       0.32844244
N        2.23785999       0.94629021       0.78344948
H       -1.93961296       1.21098991      -0.04338325
H       -2.02141058      -0.47618492      -0.54015979
H       -1.55035856      -0.05394592       1.11679851
H        0.08269805       0.57928872      -1.39754648
H        0.78653553       1.56471430       0.38616162
H        0.39798304      -1.65321980       0.72656234
H        1.00397034      -1.58337156      -0.99076046
12
Frame=16 idx=004774 GeodesicLength=1.2922468685237758 rxn_smarts="[C:1]([C:2]([C:3]([C:4]#[N:5])([H:11])[H:12])([H:9])[H:10])([H:6])([H:7])[H:8]>>[C:1]([C@:2]1([H:9])[C:3]([H:11])([H:12])/[C:4]1=[N:5]/[H:10])([H:6])([H:7])[H:8]"
C       -1.46007126       0.23425797       0.06502367
C        0.00479236       0.30897292      -0.32901296
C        0.74150663      -1.02973162      -0.08891938
C        1.74085872      -0.06214308       0.31688599
N        2.24252454       0.94175289       0.76825640
H       -1.93969642       1.20844602      -0.04151385
H       -2.01300104      -0.47285188      -0.55719797
H       -1.56068238      -0.06802870       1.10978323
H        0.08873353       0.58461417      -1.38339384
H        0.76950524       1.59047785       0.38910586
H        0.40500316      -1.64800105       0.73984099
H        0.98052691      -1.58776549      -0.98885814
