17
Frame=0 idx=011928 GeodesicLength=0.0 rxn_smarts="[C:1]([C@@:2]1([H:11])[C@@:3]2([H:12])[C:4]([H:13])([H:14])[C:5]([H:15])=[C:6]([H:16])[C@@:7]12[H:17])([H:8])([H:9])[H:10]>>[C:1]([C:2]([C@@:3]1([H:12])[C:4]([H:13])([H:14])[C+:5]([H:15])[C:6]([H:16])=[C-:7]1)([H:11])[H:17])([H:8])([H:9])[H:10]"
C       -1.74915153       0.44068368      -0.06896271
C       -0.98966975      -0.86000051      -0.09140287
C        0.43419420      -0.90192229      -0.63887233
C        1.11414055       0.43653187      -0.92402843
C        1.42747475       0.93532676       0.45494182
C        1.08945555       0.04011318       1.38523809
C        0.64292298      -1.25599636       0.80394720
H       -1.92830271       0.79085262      -1.08883510
H       -2.71504950       0.31910318       0.42208395
H       -1.19738660       1.22127323       0.45678642
H       -1.56324403      -1.71431859      -0.44435351
H        0.59810844      -1.67544855      -1.38211205
H        0.50594462       1.14536737      -1.49735801
H        2.02646718       0.27449094      -1.50452998
H        1.87621495       1.90456469       0.64357062
H        1.21412580       0.17871860       2.45220632
H       -0.78624485      -1.27933981       1.02168057
17
Frame=1 idx=011928 GeodesicLength=0.06326922840805953 rxn_smarts="[C:1]([C@@:2]1([H:11])[C@@:3]2([H:12])[C:4]([H:13])([H:14])[C:5]([H:15])=[C:6]([H:16])[C@@:7]12[H:17])([H:8])([H:9])[H:10]>>[C:1]([C:2]([C@@:3]1([H:12])[C:4]([H:13])([H:14])[C+:5]([H:15])[C:6]([H:16])=[C-:7]1)([H:11])[H:17])([H:8])([H:9])[H:10]"
C       -1.75666131       0.43860895      -0.06759235
C       -0.99478103      -0.86101063      -0.09645580
C        0.43171751      -0.89801205      -0.63332115
C        1.11512764       0.43684053      -0.92432851
C        1.43908862       0.93672614       0.45151640
C        1.09808581       0.04757226       1.38703402
C        0.63312808      -1.24239129       0.81230428
H       -1.92878407       0.80053777      -1.08454448
H       -2.72727802       0.31105313       0.41276134
H       -1.21202367       1.21476295       0.47180515
H       -1.56600411      -1.70715093      -0.47262144
H        0.61184423      -1.68249302      -1.36162720
H        0.50377872       1.14656841      -1.49294771
H        2.02249859       0.27438988      -1.51254003
H        1.90023137       1.90122866       0.63469458
H        1.22998692       0.18924939       2.45274977
H       -0.79995528      -1.30648016       1.02311312
17
Frame=2 idx=011928 GeodesicLength=0.1265311404450628 rxn_smarts="[C:1]([C@@:2]1([H:11])[C@@:3]2([H:12])[C:4]([H:13])([H:14])[C:5]([H:15])=[C:6]([H:16])[C@@:7]12[H:17])([H:8])([H:9])[H:10]>>[C:1]([C:2]([C@@:3]1([H:12])[C:4]([H:13])([H:14])[C+:5]([H:15])[C:6]([H:16])=[C-:7]1)([H:11])[H:17])([H:8])([H:9])[H:10]"
C       -1.76426671       0.43651166      -0.06609034
C       -0.99997621      -0.86198734      -0.10174278
C        0.42925785      -0.89410395      -0.62756963
C        1.11612532       0.43707392      -0.92463276
C        1.45096587       0.93805710       0.44793141
C        1.10699519       0.05518981       1.38880646
C        0.62265767      -1.22815510       0.82103873
H       -1.92930595       0.81048401      -1.07983284
H       -2.73948822       0.30291427       0.40342004
H       -1.22690307       1.20790875       0.48708719
H       -1.56844964      -1.69941778      -0.50127782
H        0.62558855      -1.68940135      -1.34029920
H        0.50163650       1.14773670      -1.48844752
H        2.01837025       0.27407581      -1.52063568
H        1.92449994       1.89765628       0.62543800
H        1.24568125       0.20022362       2.45323577
H       -0.81338859      -1.33476642       1.02357096
17
Frame=3 idx=011928 GeodesicLength=0.18980095007556633 rxn_smarts="[C:1]([C@@:2]1([H:11])[C@@:3]2([H:12])[C:4]([H:13])([H:14])[C:5]([H:15])=[C:6]([H:16])[C@@:7]12[H:17])([H:8])([H:9])[H:10]>>[C:1]([C:2]([C@@:3]1([H:12])[C:4]([H:13])([H:14])[C+:5]([H:15])[C:6]([H:16])=[C-:7]1)([H:11])[H:17])([H:8])([H:9])[H:10]"
C       -1.77199196       0.43438958      -0.06447605
C       -1.00526284      -0.86291878      -0.10726631
C        0.42680501      -0.89019022      -0.62160349
C        1.11713026       0.43723205      -0.92493222
C        1.46311154       0.93930486       0.44419274
C        1.11621579       0.06293876       1.39055242
C        0.61146322      -1.21323747       0.83015753
H       -1.92988745       0.82067360      -1.07471290
H       -2.75169996       0.29468406       0.39403802
H       -1.24205371       1.20070404       0.50260152
H       -1.57056855      -1.69110708      -0.53028706
H        0.63930562      -1.69615012      -1.31808826
H        0.49952124       1.14888142      -1.48384163
H        2.01406979       0.27353720      -1.52880989
H        1.94904409       1.89381685       0.61580844
H        1.26123709       0.21163507       2.45366792
H       -0.82643919      -1.36419383       1.02299922
17
Frame=4 idx=011928 GeodesicLength=0.2531015923591328 rxn_smarts="[C:1]([C@@:2]1([H:11])[C@@:3]2([H:12])[C:4]([H:13])([H:14])[C:5]([H:15])=[C:6]([H:16])[C@@:7]12[H:17])([H:8])([H:9])[H:10]>>[C:1]([C:2]([C@@:3]1([H:12])[C:4]([H:13])([H:14])[C+:5]([H:15])[C:6]([H:16])=[C-:7]1)([H:11])[H:17])([H:8])([H:9])[H:10]"
C       -1.77986673       0.43224003      -0.06277854
C       -1.01064986      -0.86379234      -0.11302239
C        0.42434462      -0.88626083      -0.61540600
C        1.11813749       0.43731647      -0.92521452
C        1.47552942       0.94045268       0.44030962
C        1.12577732       0.07078672       1.39227129
C        0.59949536      -1.19758231       0.83966673
H       -1.93055270       0.83108029      -1.06920962
H       -2.76394012       0.28635905       0.38458250
H       -1.25751306       1.19314776       0.51830322
H       -1.57234562      -1.68220907      -0.55961575
H        0.65295124      -1.70271150      -1.29495308
H        0.49743588       1.15001428      -1.47911089
H        2.00958212       0.27276264      -1.53705213
H        1.97388189       1.88967794       0.60581871
H        1.27671755       0.22345317       2.45405067
H       -0.83898481      -1.39473498       1.02136019
17
Frame=5 idx=011928 GeodesicLength=0.31644442758115693 rxn_smarts="[C:1]([C@@:2]1([H:11])[C@@:3]2([H:12])[C:4]([H:13])([H:14])[C:5]([H:15])=[C:6]([H:16])[C@@:7]12[H:17])([H:8])([H:9])[H:10]>>[C:1]([C:2]([C@@:3]1([H:12])[C:4]([H:13])([H:14])[C+:5]([H:15])[C:6]([H:16])=[C-:7]1)([H:11])[H:17])([H:8])([H:9])[H:10]"
C       -1.78792394       0.43006495      -0.06103747
C       -1.01614781      -0.86459132      -0.11900612
C        0.42185853      -0.88230076      -0.60896576
C        1.11914302       0.43733170      -0.92546642
C        1.48822365       0.94147802       0.43629722
C        1.13571276       0.07868489       1.39395885
C        0.58670473      -1.18113360       0.84956063
H       -1.93133114       0.84167100      -1.06336206
H       -2.77623637       0.27794486       0.37501324
H       -1.27332122       1.18524800       0.53413057
H       -1.57377318      -1.67273052      -0.58918464
H        0.66648070      -1.70905853      -1.27085685
H        0.49538711       1.15115419      -1.47423270
H        2.00489475       0.27174505      -1.54534976
H        1.99900917       1.88520855       0.59549841
H        1.29219651       0.23562585       2.45438195
H       -0.85087727      -1.42634235       1.01862091
17
Frame=6 idx=011928 GeodesicLength=0.37983763474909116 rxn_smarts="[C:1]([C@@:2]1([H:11])[C@@:3]2([H:12])[C:4]([H:13])([H:14])[C:5]([H:15])=[C:6]([H:16])[C@@:7]12[H:17])([H:8])([H:9])[H:10]>>[C:1]([C:2]([C@@:3]1([H:12])[C:4]([H:13])([H:14])[C+:5]([H:15])[C:6]([H:16])=[C-:7]1)([H:11])[H:17])([H:8])([H:9])[H:10]"
C       -1.79620275       0.42785855      -0.05930040
C       -1.02176653      -0.86530532      -0.12520041
C        0.41932515      -0.87829194      -0.60226978
C        1.12013744       0.43728783      -0.92566974
C        1.50119378       0.94235842       0.43217593
C        1.14604768       0.08658048       1.39561689
C        0.57305306      -1.16383339       0.85983130
H       -1.93225513       0.85239653      -1.05722517
H       -2.78862677       0.26943833       0.36527564
H       -1.28953096       1.17701547       0.55000766
H       -1.57483036      -1.66268381      -0.61892458
H        0.67983788      -1.71514989      -1.24577040
H        0.49337475       1.15232661      -1.46917632
H        1.99998661       0.27048534      -1.55368768
H        2.02445356       1.88036355       0.58487386
H        1.30777146       0.24807471       2.45465892
H       -0.86196886      -1.45892146       1.01478426
17
Frame=7 idx=011928 GeodesicLength=0.44328514306081507 rxn_smarts="[C:1]([C@@:2]1([H:11])[C@@:3]2([H:12])[C:4]([H:13])([H:14])[C:5]([H:15])=[C:6]([H:16])[C@@:7]12[H:17])([H:8])([H:9])[H:10]>>[C:1]([C:2]([C@@:3]1([H:12])[C:4]([H:13])([H:14])[C+:5]([H:15])[C:6]([H:16])=[C-:7]1)([H:11])[H:17])([H:8])([H:9])[H:10]"
C       -1.80474485       0.42562065      -0.05763054
C       -1.02751671      -0.86591957      -0.13158439
C        0.41671913      -0.87421144      -0.59531074
C        1.12111318       0.43719794      -0.92580496
C        1.51443986       0.94306525       0.42797125
C        1.15680722       0.09440355       1.39724187
C        0.55850609      -1.14562623       0.87045848
H       -1.93336328       0.86319771      -1.05087421
H       -2.80114927       0.26084688       0.35530433
H       -1.30619929       1.16847602       0.56583393
H       -1.57550632      -1.65210206      -0.64872385
H        0.69296313      -1.72094293      -1.21967342
H        0.49140406       1.15356352      -1.46390860
H        1.99484073       0.26898975      -1.56204705
H        2.05019958       1.87510702       0.57399463
H        1.32357618       0.26068098       2.45487593
H       -0.87208943      -1.49234704       1.00987736
17
Frame=8 idx=011928 GeodesicLength=0.5068019518186643 rxn_smarts="[C:1]([C@@:2]1([H:11])[C@@:3]2([H:12])[C:4]([H:13])([H:14])[C:5]([H:15])=[C:6]([H:16])[C@@:7]12[H:17])([H:8])([H:9])[H:10]>>[C:1]([C:2]([C@@:3]1([H:12])[C:4]([H:13])([H:14])[C+:5]([H:15])[C:6]([H:16])=[C-:7]1)([H:11])[H:17])([H:8])([H:9])[H:10]"
C       -1.81360053       0.42334770      -0.05610990
C       -1.03340895      -0.86642023      -0.13813048
C        0.41401071      -0.87002800      -0.58808214
C        1.12205832       0.43708514      -0.92584716
C        1.52795438       0.94357304       0.42371796
C        1.16799516       0.10208593       1.39883874
C        0.54303873      -1.12644987       0.88141262
H       -1.93470147       0.87399899      -1.04441395
H       -2.81385189       0.25217168       0.34501172
H       -1.32340013       1.15966704       0.58148315
H       -1.57578967      -1.64104197      -0.67844916
H        0.70579148      -1.72638561      -1.19255436
H        0.48947650       1.15490867      -1.45838831
H        1.98943575       0.26727829      -1.57040266
H        2.07625160       1.86939495       0.56291521
H        1.33980306       0.27326202       2.45502178
H       -0.88106306      -1.52644777       1.00397696
17
Frame=9 idx=011928 GeodesicLength=0.5702439066416322 rxn_smarts="[C:1]([C@@:2]1([H:11])[C@@:3]2([H:12])[C:4]([H:13])([H:14])[C:5]([H:15])=[C:6]([H:16])[C@@:7]12[H:17])([H:8])([H:9])[H:10]>>[C:1]([C:2]([C@@:3]1([H:12])[C:4]([H:13])([H:14])[C+:5]([H:15])[C:6]([H:16])=[C-:7]1)([H:11])[H:17])([H:8])([H:9])[H:10]"
C       -1.82282889       0.42101903      -0.05485064
C       -1.03944489      -0.86680468      -0.14473048
C        0.41116590      -0.86568249      -0.58056395
C        1.12295162       0.43700187      -0.92575965
C        1.54173569       0.94386899       0.41945993
C        1.17963779       0.10953729       1.40040418
C        0.52668489      -1.10621842       0.89265777
H       -1.93631217       0.88465971      -1.03800781
H       -2.82681131       0.24341851       0.33423827
H       -1.34123499       1.15063884       0.59678619
H       -1.57566611      -1.62959178      -0.70785368
H        0.71829392      -1.73143945      -1.16446133
H        0.48757736       1.15643658      -1.45254635
H        1.98373206       0.26541100      -1.57873284
H        2.10262863       1.86318805       0.55170806
H        1.35674416       0.28551092       2.45507966
H       -0.88885364      -1.56095398       0.99717268
17
Frame=10 idx=011928 GeodesicLength=0.6337831492638439 rxn_smarts="[C:1]([C@@:2]1([H:11])[C@@:3]2([H:12])[C:4]([H:13])([H:14])[C:5]([H:15])=[C:6]([H:16])[C@@:7]12[H:17])([H:8])([H:9])[H:10]>>[C:1]([C:2]([C@@:3]1([H:12])[C:4]([H:13])([H:14])[C+:5]([H:15])[C:6]([H:16])=[C-:7]1)([H:11])[H:17])([H:8])([H:9])[H:10]"
C       -1.83248992       0.41864317      -0.05395192
C       -1.04564838      -0.86705367      -0.15141629
C        0.40815230      -0.86115844      -0.57276033
C        1.12377874       0.43696411      -0.92551719
C        1.55574451       0.94393174       0.41524201
C        1.19166494       0.11671640       1.40195626
C        0.50938735      -1.08487725       0.90416080
H       -1.93826227       0.89512843      -1.03177931
H       -2.84006660       0.23458010       0.32291231
H       -1.35979073       1.14145284       0.61159095
H       -1.57513909      -1.61782748      -0.73688669
H        0.73038146      -1.73601520      -1.13532373
H        0.48571483       1.15817862      -1.44636052
H        1.97772170       0.26340159      -1.58699005
H        2.12929879       1.85644308       0.54044452
H        1.37470544       0.29716115       2.45501122
H       -0.89515308      -1.59566917       0.98966795
17
Frame=11 idx=011928 GeodesicLength=0.6974220937299984 rxn_smarts="[C:1]([C@@:2]1([H:11])[C@@:3]2([H:12])[C:4]([H:13])([H:14])[C:5]([H:15])=[C:6]([H:16])[C@@:7]12[H:17])([H:8])([H:9])[H:10]>>[C:1]([C:2]([C@@:3]1([H:12])[C:4]([H:13])([H:14])[C+:5]([H:15])[C:6]([H:16])=[C-:7]1)([H:11])[H:17])([H:8])([H:9])[H:10]"
C       -1.84264662       0.41621467      -0.05353395
C       -1.05202966      -0.86715813      -0.15813825
C        0.40493486      -0.85640943      -0.56467052
C        1.12452008       0.43701699      -0.92508718
C        1.56995504       0.94374763       0.41111561
C        1.20401875       0.12356800       1.40350632
C        0.49116126      -1.06236160       0.91587366
H       -1.94061229       0.90529409      -1.02590217
H       -2.85367828       0.22565342       0.31090572
H       -1.37917327       1.13218514       0.62571385
H       -1.57420938      -1.60586461      -0.76538163
H        0.74200255      -1.74004646      -1.10515422
H        0.48388393       1.16019974      -1.43978179
H        1.97138206       0.26130557      -1.59513591
H        2.15625125       1.84911922       0.52921301
H        1.39403817       0.30784618       2.45477078
H       -0.89979846      -1.63031041       0.98168670
17
Frame=12 idx=011928 GeodesicLength=0.761188418315211 rxn_smarts="[C:1]([C@@:2]1([H:11])[C@@:3]2([H:12])[C:4]([H:13])([H:14])[C:5]([H:15])=[C:6]([H:16])[C@@:7]12[H:17])([H:8])([H:9])[H:10]>>[C:1]([C:2]([C@@:3]1([H:12])[C:4]([H:13])([H:14])[C+:5]([H:15])[C:6]([H:16])=[C-:7]1)([H:11])[H:17])([H:8])([H:9])[H:10]"
C       -1.85336873       0.41372524      -0.05373915
C       -1.05859899      -0.86711111      -0.16484927
C        0.40147791      -0.85138476      -0.55629020
C        1.12514960       0.43721523      -0.92443248
C        1.58432474       0.94332070       0.40713721
C        1.21659449       0.13007360       1.40507984
C        0.47201836      -1.03859127       0.92774981
H       -1.94342463       0.91503999      -1.02058223
H       -2.86771638       0.21662512       0.29805456
H       -1.39951134       1.12292365       0.63895221
H       -1.57287615      -1.59384159      -0.79316996
H        0.75310149      -1.74344364      -1.07394850
H        0.48207416       1.16256851      -1.43276355
H        1.96468908       0.25919005      -1.60312180
H        2.18347645       1.84118370       0.51809870
H        1.41522725       0.31707852       2.45430781
H       -0.90263730      -1.66457195       0.97351701
17
Frame=13 idx=011928 GeodesicLength=0.8250899880756375 rxn_smarts="[C:1]([C@@:2]1([H:11])[C@@:3]2([H:12])[C:4]([H:13])([H:14])[C:5]([H:15])=[C:6]([H:16])[C@@:7]12[H:17])([H:8])([H:9])[H:10]>>[C:1]([C:2]([C@@:3]1([H:12])[C:4]([H:13])([H:14])[C+:5]([H:15])[C:6]([H:16])=[C-:7]1)([H:11])[H:17])([H:8])([H:9])[H:10]"
C       -1.86472390       0.41117009      -0.05472097
C       -1.06536558      -0.86690580      -0.17148891
C        0.39774631      -0.84602606      -0.54761079
C        1.12564238       0.43762034      -0.92351662
C        1.59880180       0.94267016       0.40336487
C        1.22926869       0.13622940       1.40669550
C        0.45198287      -1.01346887       0.93974181
H       -1.94676058       0.92423785      -1.01604797
H       -2.88224725       0.20749377       0.28418832
H       -1.42093775       1.11377651       0.65108047
H       -1.57114060      -1.58191324      -0.82006652
H        0.76364349      -1.74613398      -1.04169618
H        0.48027490       1.16535271      -1.42527027
H        1.95762700       0.25712919      -1.61089264
H        2.21089902       1.83264703       0.50720919
H        1.43884329       0.32424668       2.45354375
H       -0.90355411      -1.69812576       0.96548696
17
Frame=14 idx=011928 GeodesicLength=0.8891530375645021 rxn_smarts="[C:1]([C@@:2]1([H:11])[C@@:3]2([H:12])[C:4]([H:13])([H:14])[C:5]([H:15])=[C:6]([H:16])[C@@:7]12[H:17])([H:8])([H:9])[H:10]>>[C:1]([C:2]([C@@:3]1([H:12])[C:4]([H:13])([H:14])[C+:5]([H:15])[C:6]([H:16])=[C-:7]1)([H:11])[H:17])([H:8])([H:9])[H:10]"
C       -1.87678053       0.40854074      -0.05663560
C       -1.07233631      -0.86653862      -0.17800310
C        0.39371156      -0.84027523      -0.53861318
C        1.12596877       0.43829827      -0.92229945
C        1.61331436       0.94184430       0.39985509
C        1.24186004       0.14210901       1.40840280
C        0.43107830      -0.98689951       0.95181842
H       -1.95067651       0.93277346      -1.01252969
H       -2.89733947       0.19823126       0.26911321
H       -1.44360300       1.10484616       0.66188765
H       -1.56899906      -1.57023962      -0.84592018
H        0.77359979      -1.74802789      -1.00838228
H        0.47846868       1.16861197      -1.41727640
H        1.95018319       0.25520289      -1.61837973
H        2.23848060       1.82352248       0.49661280
H        1.46554442       0.32865227       2.45238743
H       -0.90247485      -1.73065194       0.95796220
17
Frame=15 idx=011928 GeodesicLength=0.9534010312903604 rxn_smarts="[C:1]([C@@:2]1([H:11])[C@@:3]2([H:12])[C:4]([H:13])([H:14])[C:5]([H:15])=[C:6]([H:16])[C@@:7]12[H:17])([H:8])([H:9])[H:10]>>[C:1]([C:2]([C@@:3]1([H:12])[C:4]([H:13])([H:14])[C+:5]([H:15])[C:6]([H:16])=[C-:7]1)([H:11])[H:17])([H:8])([H:9])[H:10]"
C       -1.88959526       0.40583122      -0.05963312
C       -1.07951312      -0.86600690      -0.18433373
C        0.38934877      -0.83407257      -0.52928074
C        1.12610274       0.43931497      -0.92075001
C        1.62779421       0.94089755       0.39665598
C        1.25418897       0.14779509       1.41023563
C        0.40933363      -0.95877366       0.96394062
H       -1.95522262       0.94053835      -1.01025815
H       -2.91304622       0.18882023       0.25264793
H       -1.46764488       1.09624395       0.67116576
H       -1.56644928      -1.55898389      -0.87057902
H        0.78295214      -1.74904961      -0.97398776
H        0.47663877       1.17240126      -1.40877052
H        1.94235127       0.25348916      -1.62552352
H        2.26612669       1.81386178       0.48638761
H        1.49596733       0.32953136       2.45074772
H       -0.89933313      -1.76183829       0.95133533
17
Frame=16 idx=011928 GeodesicLength=1.017846160834013 rxn_smarts="[C:1]([C@@:2]1([H:11])[C@@:3]2([H:12])[C:4]([H:13])([H:14])[C:5]([H:15])=[C:6]([H:16])[C@@:7]12[H:17])([H:8])([H:9])[H:10]>>[C:1]([C:2]([C@@:3]1([H:12])[C:4]([H:13])([H:14])[C+:5]([H:15])[C:6]([H:16])=[C-:7]1)([H:11])[H:17])([H:8])([H:9])[H:10]"
C       -1.90321093       0.40303276      -0.06384264
C       -1.08688887      -0.86531083      -0.19041841
C        0.38464097      -0.82735788      -0.51960327
C        1.12601881       0.44073991      -0.91884966
C        1.64217518       0.93989771       0.39380056
C        1.26607682       0.15339647       1.41222070
C        0.38679357      -0.92898290       0.97605974
H       -1.96044091       0.94743511      -1.00943809
H       -2.92940214       0.17923148       0.23463466
H       -1.49318552       1.08806972       0.67873631
H       -1.56348721      -1.54830698      -0.89390497
H        0.79169341      -1.74911447      -0.93849482
H        0.47476297       1.17677404      -1.39975344
H        1.93412471       0.25207059      -1.63227967
H        2.29378896       1.80370168       0.47658179
H        1.53061948       0.32612061       2.44854788
H       -0.89407932      -1.79139702       0.94600334
