16
Frame=0 idx=008598 GeodesicLength=0.0 rxn_smarts="[C:1]1([H:8])([H:9])[C@@:2]2([H:10])[C@@:3]3([H:11])[C:4]([H:12])([H:13])[C@:5]([H:14])([C:6]3([H:15])[H:16])[N:7]12>>[C:1]1([H:8])([H:9])[C@:2]([C:3](=[C:6]([H:15])[H:16])[H:11])([H:10])[N:7]1[C:5](=[C:4]([H:12])[H:13])[H:14]"
C        1.62600524       0.82188637      -0.34623318
C        1.08465896      -0.30641937       0.45500746
C       -0.43318319      -0.24447376       0.88789253
C       -1.01629821      -1.05351554      -0.44300144
C       -0.11993365      -0.56037872      -1.44414616
C       -1.07636029       1.01283542       0.99362511
N        1.14023436      -0.41997622      -0.96516240
H        2.69237786       0.98452628      -0.43460309
H        0.97581146       1.69118225      -0.42268280
H        1.73391775      -0.92922457       1.05793929
H       -0.52893937      -0.83178896       1.80572468
H       -0.87102768      -2.09364022      -0.13862015
H       -2.07349103      -0.88240348      -0.64999774
H       -0.37918609      -0.16386120      -2.41617071
H       -1.38809013       1.40846267       1.95065449
H       -1.36649595       1.56678906       0.10977410
16
Frame=1 idx=008598 GeodesicLength=0.09612157911634901 rxn_smarts="[C:1]1([H:8])([H:9])[C@@:2]2([H:10])[C@@:3]3([H:11])[C:4]([H:12])([H:13])[C@:5]([H:14])([C:6]3([H:15])[H:16])[N:7]12>>[C:1]1([H:8])([H:9])[C@:2]([C:3](=[C:6]([H:15])[H:16])[H:11])([H:10])[N:7]1[C:5](=[C:4]([H:12])[H:13])[H:14]"
C        1.63301310       0.82020283      -0.33323998
C        1.08508375      -0.30878463       0.46215957
C       -0.42643057      -0.25035482       0.90199480
C       -1.02371672      -1.07064301      -0.44637848
C       -0.14316098      -0.52189287      -1.43177060
C       -1.07218568       1.00833781       0.96446943
N        1.12874803      -0.40686581      -0.96275579
H        2.70109847       0.96987777      -0.42562047
H        0.99840699       1.70145140      -0.39816754
H        1.73527550      -0.94486469       1.05012518
H       -0.52481277      -0.82205253       1.82849889
H       -0.84944695      -2.10919548      -0.15439349
H       -2.08554624      -0.92320383      -0.64621622
H       -0.40014826      -0.12841506      -2.40533018
H       -1.35308501       1.44487544       1.91381330
H       -1.40309267       1.54152749       0.08281157
16
Frame=2 idx=008598 GeodesicLength=0.19225817015496946 rxn_smarts="[C:1]1([H:8])([H:9])[C@@:2]2([H:10])[C@@:3]3([H:11])[C:4]([H:12])([H:13])[C@:5]([H:14])([C:6]3([H:15])[H:16])[N:7]12>>[C:1]1([H:8])([H:9])[C@:2]([C:3](=[C:6]([H:15])[H:16])[H:11])([H:10])[N:7]1[C:5](=[C:4]([H:12])[H:13])[H:14]"
C        1.63950762       0.81849723      -0.32095447
C        1.08557363      -0.31085602       0.46943858
C       -0.41960393      -0.25552428       0.91629566
C       -1.03094148      -1.08675372      -0.45067919
C       -0.16585239      -0.48499652      -1.41825906
C       -1.06755461       1.00340303       0.93662797
N        1.11745352      -0.39418518      -0.95991667
H        2.70904564       0.95567901      -0.41768806
H        1.02009915       1.71087302      -0.37471439
H        1.73662816      -0.95951699       1.04261334
H       -0.52046802      -0.81170591       1.85113160
H       -0.82944623      -2.12315070      -0.17093273
H       -2.09644846      -0.96162227      -0.64469610
H       -0.41973660      -0.09574344      -2.39411776
H       -1.31836935       1.47947641       1.87594593
H       -1.43988663       1.51612635       0.05990536
16
Frame=3 idx=008598 GeodesicLength=0.28839911465180235 rxn_smarts="[C:1]1([H:8])([H:9])[C@@:2]2([H:10])[C@@:3]3([H:11])[C:4]([H:12])([H:13])[C@:5]([H:14])([C:6]3([H:15])[H:16])[N:7]12>>[C:1]1([H:8])([H:9])[C@:2]([C:3](=[C:6]([H:15])[H:16])[H:11])([H:10])[N:7]1[C:5](=[C:4]([H:12])[H:13])[H:14]"
C        1.64557499       0.81672654      -0.30937387
C        1.08613555      -0.31265775       0.47683582
C       -0.41268981      -0.25994249       0.93077548
C       -1.03797845      -1.10190706      -0.45588091
C       -0.18796533      -0.44972013      -1.40378952
C       -1.06248424       0.99816140       0.90997017
N        1.10638701      -0.38199399      -0.95667188
H        2.71632597       0.94183214      -0.41074993
H        1.04101104       1.71947220      -0.35240928
H        1.73795204      -0.97323912       1.03544667
H       -0.51589312      -0.80062451       1.87365976
H       -0.81090712      -2.13560977      -0.18807866
H       -2.10632030      -0.99785602      -0.64537004
H       -0.43805344      -0.06535801      -2.38245189
H       -1.28414359       1.51221350       1.83715141
H       -1.47695121       1.49050306       0.04093669
16
Frame=4 idx=008598 GeodesicLength=0.38454393063410813 rxn_smarts="[C:1]1([H:8])([H:9])[C@@:2]2([H:10])[C@@:3]3([H:11])[C:4]([H:12])([H:13])[C@:5]([H:14])([C:6]3([H:15])[H:16])[N:7]12>>[C:1]1([H:8])([H:9])[C@:2]([C:3](=[C:6]([H:15])[H:16])[H:11])([H:10])[N:7]1[C:5](=[C:4]([H:12])[H:13])[H:14]"
C        1.65126382       0.81486357      -0.29847716
C        1.08675694      -0.31421622       0.48434666
C       -0.40569519      -0.26359551       0.94541803
C       -1.04483445      -1.11619113      -0.46197267
C       -0.20947133      -0.41608950      -1.38852593
C       -1.05705239       0.99267631       0.88436518
N        1.09556829      -0.37033149      -0.95304349
H        2.72300468       0.92827665      -0.40472734
H        1.06121969       1.72728115      -0.33130724
H        1.73921274      -0.98608522       1.02866803
H       -0.51109048      -0.78871413       1.89611805
H       -0.79369967      -2.14670583      -0.20570729
H       -2.11526035      -1.03212296      -0.64819883
H       -0.45522261      -0.03678406      -2.37024683
H       -1.25046909       1.54317351       1.79748234
H       -1.51423060       1.46456484       0.02580849
16
Frame=5 idx=008598 GeodesicLength=0.4806925201214711 rxn_smarts="[C:1]1([H:8])([H:9])[C@@:2]2([H:10])[C@@:3]3([H:11])[C:4]([H:12])([H:13])[C@:5]([H:14])([C:6]3([H:15])[H:16])[N:7]12>>[C:1]1([H:8])([H:9])[C@:2]([C:3](=[C:6]([H:15])[H:16])[H:11])([H:10])[N:7]1[C:5](=[C:4]([H:12])[H:13])[H:14]"
C        1.65661488       0.81288704      -0.28824387
C        1.08742885      -0.31555143       0.49196370
C       -0.39862056      -0.26646469       0.96021294
C       -1.05152331      -1.12968703      -0.46893893
C       -0.23035567      -0.38412171      -1.37261958
C       -1.05132756       0.98699526       0.85970351
N        1.08501484      -0.35923547      -0.94906528
H        2.72913534       0.91496496      -0.39954604
H        1.08078496       1.73433810      -0.31145206
H        1.74038372      -0.99810793       1.02230724
H       -0.50605578      -0.77588028       1.91853692
H       -0.77770789      -2.15657100      -0.22368641
H       -2.12337645      -1.06462447      -0.65314213
H       -0.47136527      -0.00959380      -2.35743132
H       -1.21747242       1.57239646       1.75700427
H       -1.55155769       1.43825602       0.01439704
16
Frame=6 idx=008598 GeodesicLength=0.5768805339413214 rxn_smarts="[C:1]1([H:8])([H:9])[C@@:2]2([H:10])[C@@:3]3([H:11])[C:4]([H:12])([H:13])[C@:5]([H:14])([C:6]3([H:15])[H:16])[N:7]12>>[C:1]1([H:8])([H:9])[C@:2]([C:3](=[C:6]([H:15])[H:16])[H:11])([H:10])[N:7]1[C:5](=[C:4]([H:12])[H:13])[H:14]"
C        1.66163602       0.81079557      -0.27863048
C        1.08813405      -0.31668863       0.49968226
C       -0.39147221      -0.26856158       0.97515955
C       -1.05806841      -1.14250340      -0.47676200
C       -0.25063058      -0.35379959      -1.35620932
C       -1.04540984       0.98110470       0.83590433
N        1.07473009      -0.34871148      -0.94476453
H        2.73474496       0.90187444      -0.39511328
H        1.09973140       1.74069022      -0.29282134
H        1.74144336      -1.00936562       1.01638125
H       -0.50077254      -0.76206857       1.94095250
H       -0.76282362      -2.16534779      -0.24191311
H       -2.13076754      -1.09558139      -0.66014338
H       -0.48663054       0.01660390      -2.34396946
H       -1.18520516       1.60001958       1.71569971
H       -1.58863944       1.41153964       0.00654730
16
Frame=7 idx=008598 GeodesicLength=0.673078651038382 rxn_smarts="[C:1]1([H:8])([H:9])[C@@:2]2([H:10])[C@@:3]3([H:11])[C:4]([H:12])([H:13])[C@:5]([H:14])([C:6]3([H:15])[H:16])[N:7]12>>[C:1]1([H:8])([H:9])[C@:2]([C:3](=[C:6]([H:15])[H:16])[H:11])([H:10])[N:7]1[C:5](=[C:4]([H:12])[H:13])[H:14]"
C        1.66632370       0.80859092      -0.26963090
C        1.08885682      -0.31763949       0.50750302
C       -0.38425458      -0.26989012       0.99027110
C       -1.06448328      -1.15469456      -0.48543533
C       -0.27030912      -0.32515543      -1.33940297
C       -1.03940504       0.97498905       0.81289741
N        1.06470142      -0.33878103      -0.94015841
H        2.73984523       0.88900338      -0.39138272
H        1.11806346       1.74638639      -0.27545640
H        1.74237896      -1.01988934       1.01092765
H       -0.49523122      -0.74723479       1.96338811
H       -0.74899418      -2.17311828      -0.26031451
H       -2.13745220      -1.12509479      -0.66917321
H       -0.50113137       0.04204417      -2.32983160
H       -1.15384063       1.62603786       1.67360814
H       -1.62506797       1.38444607       0.00219061
16
Frame=8 idx=008598 GeodesicLength=0.7693127871250257 rxn_smarts="[C:1]1([H:8])([H:9])[C@@:2]2([H:10])[C@@:3]3([H:11])[C:4]([H:12])([H:13])[C@:5]([H:14])([C:6]3([H:15])[H:16])[N:7]12>>[C:1]1([H:8])([H:9])[C@:2]([C:3](=[C:6]([H:15])[H:16])[H:11])([H:10])[N:7]1[C:5](=[C:4]([H:12])[H:13])[H:14]"
C        1.67066903       0.80629001      -0.26120499
C        1.08958845      -0.31842474       0.51542149
C       -0.37695823      -0.27047415       1.00556782
C       -1.07079681      -1.16634023      -0.49493431
C       -0.28943093      -0.29816550      -1.32230540
C       -1.03339513       0.96860608       0.79066840
N        1.05491671      -0.32944061      -0.93527810
H        2.74443561       0.87636618      -0.38828470
H        1.13576684       1.75147566      -0.25931525
H        1.74319426      -1.02972838       1.00594565
H       -0.48938864      -0.73136100       1.98588356
H       -0.73615739      -2.17999287      -0.27881318
H       -2.14352081      -1.15328343      -0.68018509
H       -0.51498106       0.06691875      -2.31504214
H       -1.12352651       1.65049758       1.63075027
H       -1.66041539       1.35705666       0.00112596
16
Frame=9 idx=008598 GeodesicLength=0.8656805453549359 rxn_smarts="[C:1]1([H:8])([H:9])[C@@:2]2([H:10])[C@@:3]3([H:11])[C:4]([H:12])([H:13])[C@:5]([H:14])([C:6]3([H:15])[H:16])[N:7]12>>[C:1]1([H:8])([H:9])[C@:2]([C:3](=[C:6]([H:15])[H:16])[H:11])([H:10])[N:7]1[C:5](=[C:4]([H:12])[H:13])[H:14]"
C        1.67467978       0.80386448      -0.25331896
C        1.09034841      -0.31906061       0.52341666
C       -0.36951698      -0.27032215       1.02107436
C       -1.07708940      -1.17748688      -0.50522860
C       -0.30798423      -0.27265242      -1.30500196
C       -1.02734119       0.96197838       0.76924359
N        1.04540231      -0.32067989      -0.93014894
H        2.74853373       0.86392065      -0.38577696
H        1.15284064       1.75595434      -0.24428104
H        1.74391541      -1.03894361       1.00136357
H       -0.48311702      -0.71447301       2.00847240
H       -0.72432094      -2.18611747      -0.29727832
H       -2.14906880      -1.18018246      -0.69301388
H       -0.52815239       0.09140657      -2.29966363
H       -1.09442960       1.67345365       1.58736363
H       -1.69469974       1.32934042       0.00277809
16
Frame=10 idx=008598 GeodesicLength=0.962096711607909 rxn_smarts="[C:1]1([H:8])([H:9])[C@@:2]2([H:10])[C@@:3]3([H:11])[C:4]([H:12])([H:13])[C@:5]([H:14])([C:6]3([H:15])[H:16])[N:7]12>>[C:1]1([H:8])([H:9])[C@:2]([C:3](=[C:6]([H:15])[H:16])[H:11])([H:10])[N:7]1[C:5](=[C:4]([H:12])[H:13])[H:14]"
C        1.67827902       0.80139072      -0.24592617
C        1.09109113      -0.31955278       0.53150542
C       -0.36198312      -0.26948878       1.03681336
C       -1.08336031      -1.18821974      -0.51631402
C       -0.32605848      -0.24872248      -1.28756312
C       -1.02143164       0.95497907       0.74867440
N        1.03609456      -0.31248298      -0.92478456
H        2.75207471       0.85178652      -0.38376870
H        1.16918560       1.75992792      -0.23035356
H        1.74452724      -1.04754147       0.99723808
H       -0.47645192      -0.69657700       2.03116716
H       -0.71339133      -2.19155238      -0.31572033
H       -2.15417321      -1.20595034      -0.70773169
H       -0.54083437       0.11548835      -2.28373472
H       -1.06649559       1.69487646       1.54339133
H       -1.72707229       1.30163890       0.00710714
16
Frame=11 idx=008598 GeodesicLength=1.05856848332799 rxn_smarts="[C:1]1([H:8])([H:9])[C@@:2]2([H:10])[C@@:3]3([H:11])[C:4]([H:12])([H:13])[C@:5]([H:14])([C:6]3([H:15])[H:16])[N:7]12>>[C:1]1([H:8])([H:9])[C@:2]([C:3](=[C:6]([H:15])[H:16])[H:11])([H:10])[N:7]1[C:5](=[C:4]([H:12])[H:13])[H:14]"
C        1.68143015       0.79889630      -0.23899263
C        1.09180291      -0.31990812       0.53968788
C       -0.35434889      -0.26800639       1.05281250
C       -1.08965685      -1.19858447      -0.52818113
C       -0.34369238      -0.22633099      -1.27004994
C       -1.01573484       0.94756152       0.72900823
N        1.02696817      -0.30483726      -0.91920067
H        2.75503737       0.84000493      -0.38220325
H        1.18475135       1.76345639      -0.21748473
H        1.74503712      -1.05554629       0.99356133
H       -0.46934156      -0.67769350       2.05398911
H       -0.70334808      -2.19639398      -0.33409391
H       -2.15889975      -1.23065053      -0.72427768
H       -0.55307345       0.13917418      -2.26732455
H       -1.03974906       1.71473091       1.49899075
H       -1.75718220       1.27412730       0.01375871
16
Frame=12 idx=008598 GeodesicLength=1.1551246034045326 rxn_smarts="[C:1]1([H:8])([H:9])[C@@:2]2([H:10])[C@@:3]3([H:11])[C:4]([H:12])([H:13])[C@:5]([H:14])([C:6]3([H:15])[H:16])[N:7]12>>[C:1]1([H:8])([H:9])[C@:2]([C:3](=[C:6]([H:15])[H:16])[H:11])([H:10])[N:7]1[C:5](=[C:4]([H:12])[H:13])[H:14]"
C        1.68412594       0.79639922      -0.23246918
C        1.09248801      -0.32014279       0.54796093
C       -0.34658255      -0.26590789       1.06909926
C       -1.09601710      -1.20862791      -0.54081023
C       -0.36093537      -0.20539773      -1.25250428
C       -1.01025747       0.93969751       0.71031393
N        1.01800343      -0.29772430      -0.91341573
H        2.75742271       0.82859760      -0.38102239
H        1.19950782       1.76657662      -0.20559073
H        1.74546680      -1.06300532       0.99030604
H       -0.46170959      -0.65784184       2.07696359
H       -0.69415343      -2.20073776      -0.35234827
H       -2.16333705      -1.25433124      -0.74260243
H       -0.56490639       0.16247318      -2.25049926
H       -1.01417526       1.73301819       1.45431108
H       -1.78494047       1.24695446       0.02230768
16
Frame=13 idx=008598 GeodesicLength=1.251756055908033 rxn_smarts="[C:1]1([H:8])([H:9])[C@@:2]2([H:10])[C@@:3]3([H:11])[C:4]([H:12])([H:13])[C@:5]([H:14])([C:6]3([H:15])[H:16])[N:7]12>>[C:1]1([H:8])([H:9])[C@:2]([C:3](=[C:6]([H:15])[H:16])[H:11])([H:10])[N:7]1[C:5](=[C:4]([H:12])[H:13])[H:14]"
C        1.68633675       0.79392181      -0.22634973
C        1.09314047      -0.32025453       0.55633294
C       -0.33867519      -0.26321297       1.08570354
C       -1.10247479      -1.21836178      -0.55420512
C       -0.37781807      -0.18590938      -1.23496209
C       -1.00507489       0.93133650       0.69261108
N        1.00917396      -0.29114954      -0.90743321
H        2.75921512       0.81760026      -0.38020592
H        1.21341601       1.76934390      -0.19467941
H        1.74583097      -1.06992630       0.98749319
H       -0.45351657      -0.63703547       2.10010142
H       -0.68582663      -2.20462664      -0.37046322
H       -2.16749633      -1.27697797      -0.76268896
H       -0.57635418       0.18533105      -2.23330870
H       -0.98986566       1.74965479       1.40948208
H       -1.81001098       1.22026626       0.03257213
16
Frame=14 idx=008598 GeodesicLength=1.3484920156682303 rxn_smarts="[C:1]1([H:8])([H:9])[C@@:2]2([H:10])[C@@:3]3([H:11])[C:4]([H:12])([H:13])[C@:5]([H:14])([C:6]3([H:15])[H:16])[N:7]12>>[C:1]1([H:8])([H:9])[C@:2]([C:3](=[C:6]([H:15])[H:16])[H:11])([H:10])[N:7]1[C:5](=[C:4]([H:12])[H:13])[H:14]"
C        1.68811810       0.79145149      -0.22058251
C        1.09379641      -0.32028003       0.56479531
C       -0.33055602      -0.25994721       1.10265396
C       -1.10904605      -1.22781821      -0.56834555
C       -0.39438736      -0.16773027      -1.21742814
C       -1.00009859       0.92250006       0.67597370
N        1.00047600      -0.28510231      -0.90126865
H        2.76048743       0.80697008      -0.37970809
H        1.22652967       1.77178354      -0.18464658
H        1.74616149      -1.07639818       0.98506404
H       -0.44465339      -0.61527024       2.12343947
H       -0.67832677      -2.20813576      -0.38840724
H       -2.17144958      -1.29864268      -0.78446812
H       -0.58743290       0.20779714      -2.21577689
H       -0.96681761       1.76469470       1.36462463
H       -1.83280085       1.19412787       0.04408067
16
Frame=15 idx=008598 GeodesicLength=1.4453376293482285 rxn_smarts="[C:1]1([H:8])([H:9])[C@@:2]2([H:10])[C@@:3]3([H:11])[C:4]([H:12])([H:13])[C@:5]([H:14])([C:6]3([H:15])[H:16])[N:7]12>>[C:1]1([H:8])([H:9])[C@:2]([C:3](=[C:6]([H:15])[H:16])[H:11])([H:10])[N:7]1[C:5](=[C:4]([H:12])[H:13])[H:14]"
C        1.68949596       0.78898382      -0.21514918
C        1.09447370      -0.32023385       0.57335242
C       -0.32218608      -0.25611874       1.11997796
C       -1.11574437      -1.23700108      -0.58323854
C       -0.41067364      -0.15079800      -1.19989990
C       -0.99531616       0.91318617       0.66042813
N        0.99189656      -0.27958625      -0.89492475
H        2.76127765       0.79669036      -0.37951002
H        1.23887593       1.77392616      -0.17546991
H        1.74647934      -1.08246524       0.98301386
H       -0.43505926      -0.59253544       2.14699382
H       -0.67165422      -2.21130600      -0.40616248
H       -2.17520687      -1.31932167      -0.80793185
H       -0.59815632       0.22987919      -2.19790827
H       -0.94505990       1.77813295       1.31982542
H       -1.85344234       1.16856763       0.05660330
16
Frame=16 idx=008598 GeodesicLength=1.5423088032778383 rxn_smarts="[C:1]1([H:8])([H:9])[C@@:2]2([H:10])[C@@:3]3([H:11])[C:4]([H:12])([H:13])[C@:5]([H:14])([C:6]3([H:15])[H:16])[N:7]12>>[C:1]1([H:8])([H:9])[C@:2]([C:3](=[C:6]([H:15])[H:16])[H:11])([H:10])[N:7]1[C:5](=[C:4]([H:12])[H:13])[H:14]"
C        1.69049620       0.78651267      -0.21003289
C        1.09518858      -0.32012905       0.58201099
C       -0.31353073      -0.25172749       1.13770141
C       -1.12257848      -1.24591461      -0.59890032
C       -0.42670538      -0.13504929      -1.18236563
C       -0.99072174       0.90338916       0.64599452
N        0.98342289      -0.27460515      -0.88839923
H        2.76162134       0.78673781      -0.37959940
H        1.25048386       1.77580174      -0.16713543
H        1.74680016      -1.08816993       0.98134183
H       -0.42468125      -0.56880902       2.17078011
H       -0.66581321      -2.21417388      -0.42370890
H       -2.17876793      -1.33901113      -0.83309349
H       -0.60853597       0.25160076      -2.17969155
H       -0.92460345       1.78997122       1.27512823
H       -1.87207488       1.14357618       0.06996975
