16
Frame=0 idx=010835 GeodesicLength=0.0 rxn_smarts="[C:1]([C@@:2]([C:3]([C:4]([O:5][H:16])([H:14])[H:15])([H:12])[H:13])([C:6]#[N:7])[H:11])([H:8])([H:9])[H:10]>>[C:1]([C@@:2]1([H:11])[C:3]([H:12])([H:13])[C:4]([H:14])([H:15])[O:5]/[C:6]1=[N:7]\[H:16])([H:8])([H:9])[H:10]"
C       -2.00995809      -0.35877531      -0.12602033
C       -0.52847071      -0.28124053      -0.46833988
C        0.14759119       1.04605805      -0.08098509
C        1.67798180       0.79591740      -0.06668997
O        1.88295425      -0.59823682      -0.01966803
C        0.26908675      -1.26339168       0.30261811
N        0.49475918      -2.01573750       1.20522190
H       -2.55902083       0.41326305      -0.66666580
H       -2.16851353      -0.21002266       0.94304980
H       -2.42607680      -1.32866021      -0.39912693
H       -0.36711232      -0.47671155      -1.53162208
H       -0.12963771       1.84318645      -0.77119111
H       -0.20431740       1.33231014       0.91350945
H        2.14786285       1.29801784       0.78312452
H        2.13763699       1.18089599      -0.98133047
H        1.63523433      -1.37687267       0.96411590
16
Frame=1 idx=010835 GeodesicLength=0.07836475009264954 rxn_smarts="[C:1]([C@@:2]([C:3]([C:4]([O:5][H:16])([H:14])[H:15])([H:12])[H:13])([C:6]#[N:7])[H:11])([H:8])([H:9])[H:10]>>[C:1]([C@@:2]1([H:11])[C:3]([H:12])([H:13])[C:4]([H:14])([H:15])[O:5]/[C:6]1=[N:7]\[H:16])([H:8])([H:9])[H:10]"
C       -2.01320398      -0.35528373      -0.12317098
C       -0.53150252      -0.28020408      -0.46376964
C        0.14635034       1.04861429      -0.08795428
C        1.67427093       0.79892541      -0.06191795
O        1.88623404      -0.59517969      -0.02903389
C        0.26200894      -1.25876622       0.31431540
N        0.49918239      -2.03219926       1.19603702
H       -2.56107909       0.41028129      -0.67425143
H       -2.17489010      -0.19263620       0.94345363
H       -2.42708317      -1.32943219      -0.38410663
H       -0.36839625      -0.48513815      -1.52507567
H       -0.12696061       1.83693437      -0.78982438
H       -0.20923594       1.34897759       0.90107334
H        2.13515431       1.28782918       0.80050381
H        2.14309790       1.19695660      -0.96628361
H        1.66605280      -1.39967918       0.95000526
16
Frame=2 idx=010835 GeodesicLength=0.15671622387799103 rxn_smarts="[C:1]([C@@:2]([C:3]([C:4]([O:5][H:16])([H:14])[H:15])([H:12])[H:13])([C:6]#[N:7])[H:11])([H:8])([H:9])[H:10]>>[C:1]([C@@:2]1([H:11])[C:3]([H:12])([H:13])[C:4]([H:14])([H:15])[O:5]/[C:6]1=[N:7]\[H:16])([H:8])([H:9])[H:10]"
C       -2.01644615      -0.35169398      -0.12016332
C       -0.53449223      -0.27920217      -0.45888816
C        0.14509940       1.05121193      -0.09509845
C        1.67048122       0.80201564      -0.05684418
O        1.88949457      -0.59186249      -0.03807818
C        0.25491503      -1.25378246       0.32688002
N        0.50361263      -2.04915575       1.18578971
H       -2.56305244       0.40704257      -0.68196787
H       -2.18137014      -0.17475721       0.94373675
H       -2.42807487      -1.33004556      -0.36849346
H       -0.36957508      -0.49395521      -1.51804897
H       -0.12402357       1.83022232      -0.80895552
H       -0.21432545       1.36610684       0.88802176
H        2.12193624       1.27751717       0.81804756
H        2.14859888       1.21309809      -0.95047263
H        1.69722198      -1.42275973       0.93453496
16
Frame=3 idx=010835 GeodesicLength=0.2350664122883231 rxn_smarts="[C:1]([C@@:2]([C:3]([C:4]([O:5][H:16])([H:14])[H:15])([H:12])[H:13])([C:6]#[N:7])[H:11])([H:8])([H:9])[H:10]>>[C:1]([C@@:2]1([H:11])[C:3]([H:12])([H:13])[C:4]([H:14])([H:15])[O:5]/[C:6]1=[N:7]\[H:16])([H:8])([H:9])[H:10]"
C       -2.01967768      -0.34800280      -0.11699417
C       -0.53742671      -0.27824344      -0.45366609
C        0.14384708       1.05383558      -0.10240398
C        1.66661331       0.80519243      -0.05147237
O        1.89274690      -0.58827900      -0.04673947
C        0.24780915      -1.24843604       0.34036420
N        0.50798432      -2.06664033       1.17429864
H       -2.56492003       0.40353055      -0.68981926
H       -2.18795625      -0.15637709       0.94388130
H       -2.42904623      -1.33048440      -0.35227089
H       -0.37063041      -0.50317286      -1.51049820
H       -0.12081458       1.82300916      -0.82856072
H       -0.21956349       1.38367400       0.87434829
H        2.10821308       1.26713017       0.83570914
H        2.15410706       1.22928486      -0.93391707
H        1.72871450      -1.44602078       0.91774064
16
Frame=4 idx=010835 GeodesicLength=0.31341358673390857 rxn_smarts="[C:1]([C@@:2]([C:3]([C:4]([O:5][H:16])([H:14])[H:15])([H:12])[H:13])([C:6]#[N:7])[H:11])([H:8])([H:9])[H:10]>>[C:1]([C@@:2]1([H:11])[C:3]([H:12])([H:13])[C:4]([H:14])([H:15])[O:5]/[C:6]1=[N:7]\[H:16])([H:8])([H:9])[H:10]"
C       -2.02288943      -0.34421034      -0.11366240
C       -0.54029051      -0.27733910      -0.44807270
C        0.14260342       1.05646628      -0.10985166
C        1.66266996       0.80845915      -0.04580990
O        1.89600435      -0.58442549      -0.05495962
C        0.24069890      -1.24273098       0.35481364
N        0.51220499      -2.08465747       1.16137900
H       -2.56665691       0.39972604      -0.69780962
H       -2.19464805      -0.13749445       0.94386639
H       -2.42999074      -1.33073367      -0.33542421
H       -0.37154358      -0.51279661      -1.50238067
H       -0.11732350       1.81525315      -0.84860388
H       -0.22492309       1.40164251       0.86005573
H        2.09399931       1.25672000       0.85343800
H        2.15958414       1.24548210      -0.91665004
H        1.76050073      -1.46936113       0.89967194
16
Frame=5 idx=010835 GeodesicLength=0.3917262785455165 rxn_smarts="[C:1]([C@@:2]([C:3]([C:4]([O:5][H:16])([H:14])[H:15])([H:12])[H:13])([C:6]#[N:7])[H:11])([H:8])([H:9])[H:10]>>[C:1]([C@@:2]1([H:11])[C:3]([H:12])([H:13])[C:4]([H:14])([H:15])[O:5]/[C:6]1=[N:7]\[H:16])([H:8])([H:9])[H:10]"
C       -2.02607103      -0.34032097      -0.11017135
C       -0.54306558      -0.27650425      -0.44207817
C        0.14137860       1.05908022      -0.11741661
C        1.65865509       0.81181758      -0.03986807
O        1.89928373      -0.58030248      -0.06267783
C        0.23359309      -1.23668744       0.37025017
N        0.51615770      -2.10313484       1.14689125
H       -2.56823659       0.39561386      -0.70593886
H       -2.20144298      -0.11812583       0.94367130
H       -2.43089920      -1.33078137      -0.31795636
H       -0.37229545      -0.52282259      -1.49365935
H       -0.11354561       1.80691514      -0.86903025
H       -0.23037159       1.41995712       0.84515935
H        2.07931638       1.24633813       0.87117733
H        2.16498758       1.26164926      -0.89871253
H        1.79255586      -1.49269154       0.88035998
16
Frame=6 idx=010835 GeodesicLength=0.47001762217927234 rxn_smarts="[C:1]([C@@:2]([C:3]([C:4]([O:5][H:16])([H:14])[H:15])([H:12])[H:13])([C:6]#[N:7])[H:11])([H:8])([H:9])[H:10]>>[C:1]([C@@:2]1([H:11])[C:3]([H:12])([H:13])[C:4]([H:14])([H:15])[O:5]/[C:6]1=[N:7]\[H:16])([H:8])([H:9])[H:10]"
C       -2.02921508      -0.33634524      -0.10654137
C       -0.54573848      -0.27575312      -0.43567130
C        0.14018248       1.06164239      -0.12505825
C        1.65457437       0.81525551      -0.03366967
O        1.90259882      -0.57592649      -0.06986977
C        0.22649457      -1.23036028       0.38665269
N        0.51971405      -2.12187518       1.13082783
H       -2.56963436       0.39118931      -0.71419847
H       -2.20833512      -0.09832607       0.94326198
H       -2.43177531      -1.33060918      -0.29991321
H       -0.37287443      -0.53322009      -1.48432083
H       -0.10948403       1.79796792      -0.88974329
H       -0.23586677       1.43852010       0.82970531
H        2.06420380       1.23600916       0.88886681
H        2.17026568       1.27775033      -0.88016697
H        1.82488984      -1.51591906       0.85983848
16
Frame=7 idx=010835 GeodesicLength=0.5482902744238837 rxn_smarts="[C:1]([C@@:2]([C:3]([C:4]([O:5][H:16])([H:14])[H:15])([H:12])[H:13])([C:6]#[N:7])[H:11])([H:8])([H:9])[H:10]>>[C:1]([C@@:2]1([H:11])[C:3]([H:12])([H:13])[C:4]([H:14])([H:15])[O:5]/[C:6]1=[N:7]\[H:16])([H:8])([H:9])[H:10]"
C       -2.03231488      -0.33229917      -0.10280400
C       -0.54829626      -0.27510142      -0.42885597
C        0.13902467       1.06411238      -0.13272622
C        1.65043531       0.81875377      -0.02724446
O        1.90596690      -0.57132265      -0.07652664
C        0.21940974      -1.22383699       0.40393464
N        0.52272332      -2.14055202       1.11333942
H       -2.57082731       0.38646023      -0.72257106
H       -2.21531140      -0.07818925       0.94260478
H       -2.43262274      -1.33020321      -0.28138208
H       -0.37327571      -0.54393474      -1.47438026
H       -0.10515148       1.78840256      -0.91061541
H       -0.24135893       1.45719822       0.81377059
H        2.04871143       1.22574024       0.90643989
H        2.17536166       1.29374376      -0.86108521
H        1.85752568      -1.53897173       0.83810199
16
Frame=8 idx=010835 GeodesicLength=0.6264853681958746 rxn_smarts="[C:1]([C@@:2]([C:3]([C:4]([O:5][H:16])([H:14])[H:15])([H:12])[H:13])([C:6]#[N:7])[H:11])([H:8])([H:9])[H:10]>>[C:1]([C@@:2]1([H:11])[C:3]([H:12])([H:13])[C:4]([H:14])([H:15])[O:5]/[C:6]1=[N:7]\[H:16])([H:8])([H:9])[H:10]"
C       -2.03536534      -0.32820912      -0.09900906
C       -0.55073311      -0.27455960      -0.42166656
C        0.13791357       1.06644479      -0.14036105
C        1.64624703       0.82228030      -0.02062979
O        1.90940306      -0.56652935      -0.08267215
C        0.21233804      -1.21723968       0.42193578
N        0.52506655      -2.15870667       1.09481203
H       -2.57180134       0.38145155      -0.73102783
H       -2.22235028      -0.05785108       0.94166352
H       -2.43345569      -1.32955246      -0.26249921
H       -0.37350362      -0.55488165      -1.46389163
H       -0.10056552       1.77823350      -0.93148739
H       -0.24679649       1.47582851       0.79745829
H        2.03290025       1.21550468       0.92383940
H        2.18022077       1.30959844      -0.84154174
H        1.89048211      -1.56181215       0.81507740
16
Frame=9 idx=010835 GeodesicLength=0.7045725020673458 rxn_smarts="[C:1]([C@@:2]([C:3]([C:4]([O:5][H:16])([H:14])[H:15])([H:12])[H:13])([C:6]#[N:7])[H:11])([H:8])([H:9])[H:10]>>[C:1]([C@@:2]1([H:11])[C:3]([H:12])([H:13])[C:4]([H:14])([H:15])[O:5]/[C:6]1=[N:7]\[H:16])([H:8])([H:9])[H:10]"
C       -2.03835662      -0.32411107      -0.09522033
C       -0.55305013      -0.27413054      -0.41418126
C        0.13685718       1.06859414      -0.14789705
C        1.64202359       0.82578973      -0.01388822
O        1.91292107      -0.56160229      -0.08839634
C        0.20529292      -1.21071575       0.44038221
N        0.52662356      -2.17588900       1.07583071
H       -2.57255506       0.37622258      -0.73949976
H       -2.22940137      -0.03750278       0.94041203
H       -2.43428180      -1.32865270      -0.24346527
H       -0.37358481      -0.56593174      -1.45297128
H       -0.09576254       1.76752538      -0.95215942
H       -0.25211975       1.49422057       0.78091016
H        2.01685626       1.20522828       0.94098813
H        2.18478765       1.32528377      -0.82164146
H        1.92374985      -1.58432858       0.79079714
16
Frame=10 idx=010835 GeodesicLength=0.7825093568528572 rxn_smarts="[C:1]([C@@:2]([C:3]([C:4]([O:5][H:16])([H:14])[H:15])([H:12])[H:13])([C:6]#[N:7])[H:11])([H:8])([H:9])[H:10]>>[C:1]([C@@:2]1([H:11])[C:3]([H:12])([H:13])[C:4]([H:14])([H:15])[O:5]/[C:6]1=[N:7]\[H:16])([H:8])([H:9])[H:10]"
C       -2.04130673      -0.32001992      -0.09150315
C       -0.55526403      -0.27380709      -0.40646642
C        0.13585558       1.07052531      -0.15527791
C        1.63776502       0.82924027      -0.00703053
O        1.91652613      -0.55658391      -0.09373872
C        0.19823319      -1.20439636       0.45905764
N        0.52742269      -2.19156984       1.05709291
H       -2.57309751       0.37081717      -0.74798635
H       -2.23646995      -0.01726771       0.93881320
H       -2.43514646      -1.32749336      -0.22444337
H       -0.37353146      -0.57699546      -1.44170735
H       -0.09075400       1.75631509      -0.97249530
H       -0.25729711       1.51221863       0.76424123
H        2.00061625       1.19485435       0.95787461
H        2.18902415       1.34077676      -0.80141237
H        1.95742424      -1.60661393       0.76498188
16
Frame=11 idx=010835 GeodesicLength=0.8602844819141241 rxn_smarts="[C:1]([C@@:2]([C:3]([C:4]([O:5][H:16])([H:14])[H:15])([H:12])[H:13])([C:6]#[N:7])[H:11])([H:8])([H:9])[H:10]>>[C:1]([C@@:2]1([H:11])[C:3]([H:12])([H:13])[C:4]([H:14])([H:15])[O:5]/[C:6]1=[N:7]\[H:16])([H:8])([H:9])[H:10]"
C       -2.04422835      -0.31594952      -0.08791509
C       -0.55739662      -0.27357432      -0.39859804
C        0.13490746       1.07221736      -0.16246051
C        1.63347338       0.83259239      -0.00007920
O        1.92021748      -0.55151372      -0.09875705
C        0.19112490      -1.19837213       0.47774907
N        0.52752074      -2.20545359       1.03923334
H       -2.57344363       0.36528884      -0.75646808
H       -2.24354751       0.00274108       0.93684129
H       -2.43608211      -1.32606465      -0.20559231
H       -0.37336641      -0.58798557      -1.43019858
H       -0.08555631       1.74466542      -0.99237262
H       -0.26230206       1.52970505       0.74755210
H        1.98422699       1.18431457       0.97447502
H        2.19290047       1.35605365      -0.78089502
H        1.99155159      -1.62866485       0.73748567
16
Frame=12 idx=010835 GeodesicLength=0.9379012693947704 rxn_smarts="[C:1]([C@@:2]([C:3]([C:4]([O:5][H:16])([H:14])[H:15])([H:12])[H:13])([C:6]#[N:7])[H:11])([H:8])([H:9])[H:10]>>[C:1]([C@@:2]1([H:11])[C:3]([H:12])([H:13])[C:4]([H:14])([H:15])[O:5]/[C:6]1=[N:7]\[H:16])([H:8])([H:9])[H:10]"
C       -2.04713913      -0.31190209      -0.08450317
C       -0.55947247      -0.27341495      -0.39062891
C        0.13401026       1.07366403      -0.16942088
C        1.62914655       0.83581630       0.00695958
O        1.92398694      -0.54642247      -0.10347256
C        0.18391198      -1.19267679       0.49634742
N        0.52704023      -2.21742451       1.02272201
H       -2.57360946       0.35967849      -0.76495253
H       -2.25064761       0.02247857       0.93447109
H       -2.43712865      -1.32436155      -0.18702012
H       -0.37310104      -0.59885934      -1.41850634
H       -0.08017767       1.73262776      -1.01172064
H       -0.26712778       1.54662889       0.73090967
H        1.96771695       1.17355986       0.99078587
H        2.19640365       1.37108830      -0.76010844
H        2.02618726      -1.65048052       0.70813795
16
Frame=13 idx=010835 GeodesicLength=1.015415585362872 rxn_smarts="[C:1]([C@@:2]([C:3]([C:4]([O:5][H:16])([H:14])[H:15])([H:12])[H:13])([C:6]#[N:7])[H:11])([H:8])([H:9])[H:10]>>[C:1]([C@@:2]1([H:11])[C:3]([H:12])([H:13])[C:4]([H:14])([H:15])[O:5]/[C:6]1=[N:7]\[H:16])([H:8])([H:9])[H:10]"
C       -2.05005622      -0.30786940      -0.08129272
C       -0.56151367      -0.27331251      -0.38258752
C        0.13316071       1.07486932      -0.17614855
C        1.62478129       0.83889480       0.01408752
O        1.92782488      -0.54133258      -0.10788486
C        0.17654437      -1.18729815       0.51481150
N        0.52609148      -2.22755398       1.00781147
H       -2.57360633       0.35400996      -0.77345718
H       -2.25779263       0.04194205       0.93168375
H       -2.43831591      -1.32237185      -0.16878180
H       -0.37274420      -0.60960245      -1.40666032
H       -0.07461767       1.72023775      -1.03050816
H       -0.27177395       1.56298237       0.71434359
H        1.95110615       1.16257558       1.00680213
H        2.19952551       1.38585425      -0.73906587
H        2.06138619      -1.67202517       0.67684702
16
Frame=14 idx=010835 GeodesicLength=1.09285021295059 rxn_smarts="[C:1]([C@@:2]([C:3]([C:4]([O:5][H:16])([H:14])[H:15])([H:12])[H:13])([C:6]#[N:7])[H:11])([H:8])([H:9])[H:10]>>[C:1]([C@@:2]1([H:11])[C:3]([H:12])([H:13])[C:4]([H:14])([H:15])[O:5]/[C:6]1=[N:7]\[H:16])([H:8])([H:9])[H:10]"
C       -2.05299908      -0.30384216      -0.07830892
C       -0.56354035      -0.27325688      -0.37447879
C        0.13235604       1.07583833      -0.18263531
C        1.62037335       0.84181318       0.02132172
O        1.93172047      -0.53626329      -0.11196136
C        0.16895525      -1.18220295       0.53318389
N        0.52480373      -2.23592095       0.99466582
H       -2.57343868       0.34829743      -0.78202256
H       -2.26502040       0.06116771       0.92845353
H       -2.43967942      -1.32009334      -0.15091007
H       -0.37228847      -0.62023595      -1.39465329
H       -0.06887083       1.70751195      -1.04872892
H       -0.27624630       1.57878306       0.69787087
H        1.93440485       1.15136140       1.02253625
H        2.20226660       1.40032060      -0.71776680
H        2.09720325      -1.69327813       0.64343392
16
Frame=15 idx=010835 GeodesicLength=1.1702605496052514 rxn_smarts="[C:1]([C@@:2]([C:3]([C:4]([O:5][H:16])([H:14])[H:15])([H:12])[H:13])([C:6]#[N:7])[H:11])([H:8])([H:9])[H:10]>>[C:1]([C@@:2]1([H:11])[C:3]([H:12])([H:13])[C:4]([H:14])([H:15])[O:5]/[C:6]1=[N:7]\[H:16])([H:8])([H:9])[H:10]"
C       -2.05598481      -0.29980813      -0.07556743
C       -0.56556945      -0.27324117      -0.36629510
C        0.13159521       1.07657557      -0.18887667
C        1.61591908       0.84456126       0.02868023
O        1.93566288      -0.53123433      -0.11566070
C        0.16108720      -1.17734395       0.55153018
N        0.52327265      -2.24266629       0.98335243
H       -2.57310466       0.34254633      -0.79068910
H       -2.27236878       0.08019840       0.92475346
H       -2.44124864      -1.31751583      -0.13341627
H       -0.37172606      -0.63079036      -1.38246237
H       -0.06292899       1.69445787      -1.06638480
H       -0.28055063       1.59406003       0.68149310
H        1.91762321       1.13993372       1.03799810
H        2.20462779       1.41445519      -0.69621505
H        2.13369398      -1.71418833       0.60775997
16
Frame=16 idx=010835 GeodesicLength=1.2477064931420085 rxn_smarts="[C:1]([C@@:2]([C:3]([C:4]([O:5][H:16])([H:14])[H:15])([H:12])[H:13])([C:6]#[N:7])[H:11])([H:8])([H:9])[H:10]>>[C:1]([C@@:2]1([H:11])[C:3]([H:12])([H:13])[C:4]([H:14])([H:15])[O:5]/[C:6]1=[N:7]\[H:16])([H:8])([H:9])[H:10]"
C       -2.05902827      -0.29575637      -0.07308241
C       -0.56761350      -0.27326276      -0.35801567
C        0.13087881       1.07708511      -0.19486932
C        1.61141593       0.84713147       0.03618931
O        1.93964399      -0.52626294      -0.11892451
C        0.15288322      -1.17266469       0.56994376
N        0.52156783      -2.24793182       0.97391064
H       -2.57259664       0.33674593      -0.79950888
H       -2.27987888       0.09909414       0.92054916
H       -2.44305056      -1.31463410      -0.11629187
H       -0.37104282      -0.64130831      -1.37004654
H       -0.05677833       1.68106793      -1.08348707
H       -0.28469402       1.60885120       0.66520163
H        1.90076674       1.12831651       1.05320873
H        2.20661719       1.42822670      -0.67440340
H        2.17090931      -1.73469800       0.56962642
