11
Frame=0 idx=001571 GeodesicLength=0.0 rxn_smarts="[C:1]([n:2]1[c:3]([H:10])[n:4][c:5]([H:11])[n:6]1)([H:7])([H:8])[H:9]>>[C:1]([C@@:3]1([H:10])[N:2]=[N:6][C:5]([H:11])=[N:4]1)([H:7])([H:8])[H:9]"
C       -1.38044653      -0.09970943      -0.17398840
N        0.03939137      -0.49950868       0.99179737
C        0.16925454       0.78112753       0.46515264
N        1.21340181       0.88522021      -0.36817955
C        1.67776575      -0.36085396      -0.35203086
N        0.99734203      -1.22247475       0.41150330
H       -1.37299971      -1.12352746      -0.52257037
H       -2.16262370       0.08780945       0.55003122
H       -1.40834892       0.59554318      -1.01078190
H       -0.32132253       1.62982894       0.92132296
H        2.54858584      -0.67345504      -0.91225640
11
Frame=1 idx=001571 GeodesicLength=0.04413436886019197 rxn_smarts="[C:1]([n:2]1[c:3]([H:10])[n:4][c:5]([H:11])[n:6]1)([H:7])([H:8])[H:9]>>[C:1]([C@@:3]1([H:10])[N:2]=[N:6][C:5]([H:11])=[N:4]1)([H:7])([H:8])[H:9]"
C       -1.39248175      -0.09770070      -0.16788585
N        0.03934932      -0.49678548       0.97696973
C        0.16979897       0.78119593       0.44403771
N        1.21546442       0.87506084      -0.39156255
C        1.69682720      -0.36228779      -0.34174663
N        0.99665859      -1.22430460       0.40799923
H       -1.38411631      -1.11148131      -0.54607296
H       -2.16908953       0.06179959       0.56944608
H       -1.45546541       0.61458185      -0.98839641
H       -0.30148633       1.63447015       0.91204843
H        2.58454082      -0.67454847      -0.87483678
11
Frame=2 idx=001571 GeodesicLength=0.08589168629798555 rxn_smarts="[C:1]([n:2]1[c:3]([H:10])[n:4][c:5]([H:11])[n:6]1)([H:7])([H:8])[H:9]>>[C:1]([C@@:3]1([H:10])[N:2]=[N:6][C:5]([H:11])=[N:4]1)([H:7])([H:8])[H:9]"
C       -1.40344744      -0.09587569      -0.16220061
N        0.03923102      -0.49353724       0.96300959
C        0.17029172       0.78159473       0.42333254
N        1.21848495       0.86494102      -0.41324776
C        1.71314882      -0.36422136      -0.33330980
N        0.99664018      -1.22544992       0.40661693
H       -1.39400684      -1.09859312      -0.57014867
H       -2.17471104       0.03450539       0.58709014
H       -1.50083320       0.63302912      -0.96466484
H       -0.28191051       1.63929197       0.90218551
H        2.61711234      -0.67568489      -0.83866302
11
Frame=3 idx=001571 GeodesicLength=0.1259055325232461 rxn_smarts="[C:1]([n:2]1[c:3]([H:10])[n:4][c:5]([H:11])[n:6]1)([H:7])([H:8])[H:9]>>[C:1]([C@@:3]1([H:10])[N:2]=[N:6][C:5]([H:11])=[N:4]1)([H:7])([H:8])[H:9]"
C       -1.41353541      -0.09420220      -0.15687873
N        0.03904219      -0.48980838       0.94978258
C        0.17072806       0.78225927       0.40292126
N        1.22231994       0.85491145      -0.43347063
C        1.72746502      -0.36653970      -0.32617925
N        0.99710952      -1.22600199       0.40708882
H       -1.40298391      -1.08481253      -0.59465915
H       -2.17957108       0.00604517       0.60305164
H       -1.54466033       0.65081476      -0.93961309
H       -0.26257584       1.64422563       0.89173610
H        2.64666185      -0.67689147      -0.80377955
11
Frame=4 idx=001571 GeodesicLength=0.1645798314763151 rxn_smarts="[C:1]([n:2]1[c:3]([H:10])[n:4][c:5]([H:11])[n:6]1)([H:7])([H:8])[H:9]>>[C:1]([C@@:3]1([H:10])[N:2]=[N:6][C:5]([H:11])=[N:4]1)([H:7])([H:8])[H:9]"
C       -1.42290094      -0.09265500      -0.15186713
N        0.03878957      -0.48565466       0.93717269
C        0.17110170       0.78313361       0.38271673
N        1.22684970       0.84499562      -0.45242340
C        1.74030489      -0.36913841      -0.31993763
N        0.99792075      -1.22603271       0.40914650
H       -1.41133517      -1.07011792      -0.61945566
H       -2.18372545      -0.02343273       0.61740778
H       -1.58707829       0.66784967      -0.91329884
H       -0.24346457       1.64921525       0.88071821
H        2.67353782      -0.67816274      -0.77017925
11
Frame=5 idx=001571 GeodesicLength=0.20220027227651197 rxn_smarts="[C:1]([n:2]1[c:3]([H:10])[n:4][c:5]([H:11])[n:6]1)([H:7])([H:8])[H:9]>>[C:1]([C@@:3]1([H:10])[N:2]=[N:6][C:5]([H:11])=[N:4]1)([H:7])([H:8])[H:9]"
C       -1.43163857      -0.09122539      -0.14714883
N        0.03845983      -0.48111004       0.92513156
C        0.17140198       0.78420102       0.36269987
N        1.23202860       0.83524900      -0.47016555
C        1.75210400      -0.37188661      -0.31414956
N        0.99899334      -1.22556689       0.41265665
H       -1.41923925      -1.05452575      -0.64441714
H       -2.18723344      -0.05382619       0.63016310
H       -1.62812792       0.68406061      -0.88581118
H       -0.22463910       1.65424898       0.86915417
H        2.69789053      -0.67961875      -0.73811310
11
Frame=6 idx=001571 GeodesicLength=0.238865668689225 rxn_smarts="[C:1]([n:2]1[c:3]([H:10])[n:4][c:5]([H:11])[n:6]1)([H:7])([H:8])[H:9]>>[C:1]([C@@:3]1([H:10])[N:2]=[N:6][C:5]([H:11])=[N:4]1)([H:7])([H:8])[H:9]"
C       -1.43974674      -0.08994027      -0.14275786
N        0.03804175      -0.47615081       0.91373438
C        0.17160772       0.78548918       0.34298469
N        1.23787468       0.82581775      -0.48648206
C        1.76310981      -0.37464277      -0.30841921
N        1.00033690      -1.22452033       0.41774286
H       -1.42668465      -1.03811394      -0.66943140
H       -2.19014832      -0.08498924       0.64115889
H       -1.66767327       0.69926105      -0.85740642
H       -0.20623374       1.65933342       0.85717176
H        2.71951586      -0.68154404      -0.70829563
11
Frame=7 idx=001571 GeodesicLength=0.2746728776296574 rxn_smarts="[C:1]([n:2]1[c:3]([H:10])[n:4][c:5]([H:11])[n:6]1)([H:7])([H:8])[H:9]>>[C:1]([C@@:3]1([H:10])[N:2]=[N:6][C:5]([H:11])=[N:4]1)([H:7])([H:8])[H:9]"
C       -1.44712971      -0.08885526      -0.13880904
N        0.03746915      -0.47071230       0.90315708
C        0.17167971       0.78707644       0.32374649
N        1.24443687       0.81688363      -0.50106536
C        1.77373388      -0.37706796      -0.30188112
N        1.00196173      -1.22274103       0.42470988
H       -1.43350291      -1.02102096      -0.69446297
H       -2.19247531      -0.11689648       0.65017427
H       -1.70550344       0.71333277      -0.82839218
H       -0.18851762       1.66454124       0.84489799
H        2.73784766      -0.68454010      -0.68207503
11
Frame=8 idx=001571 GeodesicLength=0.3096960177663232 rxn_smarts="[C:1]([n:2]1[c:3]([H:10])[n:4][c:5]([H:11])[n:6]1)([H:7])([H:8])[H:9]>>[C:1]([C@@:3]1([H:10])[N:2]=[N:6][C:5]([H:11])=[N:4]1)([H:7])([H:8])[H:9]"
C       -1.45401203      -0.08788240      -0.13512470
N        0.03680375      -0.46484749       0.89309285
C        0.17164482       0.78881213       0.30478311
N        1.25159320       0.80829393      -0.51423281
C        1.78389693      -0.37932070      -0.29500395
N        1.00376939      -1.22025357       0.43305090
H       -1.44003915      -1.00303823      -0.71933967
H       -2.19426871      -0.14940510       0.65744318
H       -1.74196797       0.72625403      -0.79856981
H       -0.17135789       1.66968407       0.83219824
H        2.75393766      -0.68829666      -0.65829735
11
Frame=9 idx=001571 GeodesicLength=0.34426209272468516 rxn_smarts="[C:1]([n:2]1[c:3]([H:10])[n:4][c:5]([H:11])[n:6]1)([H:7])([H:8])[H:9]>>[C:1]([C@@:3]1([H:10])[N:2]=[N:6][C:5]([H:11])=[N:4]1)([H:7])([H:8])[H:9]"
C       -1.46050009      -0.08705378      -0.13170786
N        0.03606006      -0.45869120       0.88357171
C        0.17153919       0.79075933       0.28603947
N        1.25924508       0.80011279      -0.52627862
C        1.79377884      -0.38133854      -0.28761676
N        1.00566434      -1.21727188       0.44263712
H       -1.44654993      -0.98434117      -0.74413786
H       -2.19550886      -0.18250778       0.66315414
H       -1.77720930       0.73815643      -0.76805467
H       -0.15464636       1.67496358       0.81916372
H        2.76812703      -0.69278779      -0.63677040
11
Frame=10 idx=001571 GeodesicLength=0.3781136132611326 rxn_smarts="[C:1]([n:2]1[c:3]([H:10])[n:4][c:5]([H:11])[n:6]1)([H:7])([H:8])[H:9]>>[C:1]([C@@:3]1([H:10])[N:2]=[N:6][C:5]([H:11])=[N:4]1)([H:7])([H:8])[H:9]"
C       -1.46646424      -0.08637100      -0.12861918
N        0.03518724      -0.45204870       0.87460650
C        0.17128340       0.79287323       0.26764949
N        1.26744586       0.79236467      -0.53675060
C        1.80361017      -0.38282319      -0.27911088
N        1.00777811      -1.21338206       0.45375536
H       -1.45266694      -0.96481845      -0.76868488
H       -2.19620955      -0.21612638       0.66693861
H       -1.81104743       0.74882360      -0.73691031
H       -0.13876414       1.68018133       0.80577105
H        2.77984752      -0.69867306      -0.61864516
11
Frame=11 idx=001571 GeodesicLength=0.4115786522382236 rxn_smarts="[C:1]([n:2]1[c:3]([H:10])[n:4][c:5]([H:11])[n:6]1)([H:7])([H:8])[H:9]>>[C:1]([C@@:3]1([H:10])[N:2]=[N:6][C:5]([H:11])=[N:4]1)([H:7])([H:8])[H:9]"
C       -1.47205402      -0.08584510      -0.12579660
N        0.03423737      -0.44507766       0.86616004
C        0.17096221       0.79518047       0.24950733
N        1.27611990       0.78508495      -0.54601152
C        1.81334220      -0.38388582      -0.26976049
N        1.00998177      -1.20883596       0.46615125
H       -1.45875855      -0.94455878      -0.79308201
H       -2.19632861      -0.25026972       0.66910045
H       -1.84370937       0.75835937      -0.70518838
H       -0.12346997       1.68551715       0.79205246
H        2.78967707      -0.70566891      -0.60313253
11
Frame=12 idx=001571 GeodesicLength=0.4447219168371874 rxn_smarts="[C:1]([n:2]1[c:3]([H:10])[n:4][c:5]([H:11])[n:6]1)([H:7])([H:8])[H:9]>>[C:1]([C@@:3]1([H:10])[N:2]=[N:6][C:5]([H:11])=[N:4]1)([H:7])([H:8])[H:9]"
C       -1.47740972      -0.08541272      -0.12312245
N        0.03324652      -0.43785622       0.85796763
C        0.17059516       0.79753640       0.23136633
N        1.28510234       0.77802062      -0.55451330
C        1.82302082      -0.38459437      -0.25976093
N        1.01218383      -1.20371900       0.47938472
H       -1.46511962      -0.92334611      -0.81728707
H       -2.19582411      -0.28493147       0.66982080
H       -1.87546168       0.76689128      -0.67251934
H       -0.10861171       1.69083034       0.77781384
H        2.79827817      -0.71341875      -0.58915023
11
Frame=13 idx=001571 GeodesicLength=0.47762996654298734 rxn_smarts="[C:1]([n:2]1[c:3]([H:10])[n:4][c:5]([H:11])[n:6]1)([H:7])([H:8])[H:9]>>[C:1]([C@@:3]1([H:10])[N:2]=[N:6][C:5]([H:11])=[N:4]1)([H:7])([H:8])[H:9]"
C       -1.48266194      -0.08502106      -0.12048768
N        0.03225651      -0.43048973       0.84981359
C        0.17021800       0.79982188       0.21301044
N        1.29425132       0.77096255      -0.56269079
C        1.83256687      -0.38511784      -0.24949537
N        1.01428580      -1.19818231       0.49305528
H       -1.47210360      -0.90099992      -0.84128133
H       -2.19463286      -0.32010299       0.66929025
H       -1.90650301       0.77453417      -0.63858420
H       -0.09399743       1.69603758       0.76289299
H        2.80632035      -0.72144234      -0.57552319
11
Frame=14 idx=001571 GeodesicLength=0.5103785378455632 rxn_smarts="[C:1]([n:2]1[c:3]([H:10])[n:4][c:5]([H:11])[n:6]1)([H:7])([H:8])[H:9]>>[C:1]([C@@:3]1([H:10])[N:2]=[N:6][C:5]([H:11])=[N:4]1)([H:7])([H:8])[H:9]"
C       -1.48792110      -0.08463004      -0.11779780
N        0.03129283      -0.42308722       0.84151656
C        0.16985793       0.80192396       0.19425087
N        1.30343629       0.76371866      -0.57094655
C        1.84186676      -0.38564734      -0.23938611
N        1.01619950      -1.19237918       0.50681999
H       -1.48003541      -0.87735446      -0.86502417
H       -2.19272662      -0.35574558       0.66763884
H       -1.93695071       0.78138247      -0.60306960
H       -0.07944590       1.70105656       0.74715323
H        2.81442643      -0.72923784      -0.56115526
11
Frame=15 idx=001571 GeodesicLength=0.5430349681372266 rxn_smarts="[C:1]([n:2]1[c:3]([H:10])[n:4][c:5]([H:11])[n:6]1)([H:7])([H:8])[H:9]>>[C:1]([C@@:3]1([H:10])[N:2]=[N:6][C:5]([H:11])=[N:4]1)([H:7])([H:8])[H:9]"
C       -1.49337783      -0.08413836      -0.11489307
N        0.03040181      -0.41585099       0.83273201
C        0.16954192       0.80363691       0.17476538
N        1.31244079       0.75593162      -0.57993758
C        1.85073928      -0.38653022      -0.23011540
N        1.01777219      -1.18662515       0.52001859
H       -1.48954293      -0.85212953      -0.88842047
H       -2.19004184      -0.39177825       0.66512721
H       -1.96697997       0.78762569      -0.56546146
H       -0.06466375       1.70570784       0.73034265
H        2.82371034      -0.73584956      -0.54415788
11
Frame=16 idx=001571 GeodesicLength=0.5755141254599012 rxn_smarts="[C:1]([n:2]1[c:3]([H:10])[n:4][c:5]([H:11])[n:6]1)([H:7])([H:8])[H:9]>>[C:1]([C@@:3]1([H:10])[N:2]=[N:6][C:5]([H:11])=[N:4]1)([H:7])([H:8])[H:9]"
C       -1.49861377      -0.08377058      -0.11212067
N        0.02947944      -0.40840399       0.82415245
C        0.16920635       0.80530173       0.15520118
N        1.32167098       0.74826588      -0.58832494
C        1.85959183      -0.38705442      -0.22019490
N        1.01935649      -1.18023531       0.53407447
H       -1.49959809      -0.82574916      -0.91149470
H       -2.18663061      -0.42821929       0.66097373
H       -1.99596749       0.79271257      -0.52670670
H       -0.05038789       1.71032587       0.71284984
H        2.83189276      -0.74317329      -0.52840975
