10
Frame=0 idx=000236 GeodesicLength=0.0 rxn_smarts="[c:1]1([H:7])[c:2]([H:8])[n:3][c:4]([H:9])[c:5]([H:10])[n:6]1>>[C-:1]([C-:2]([N+:3]#[C:4][H:9])[H:8])([N+:6]#[C:5][H:10])[H:7]"
C        1.07028294       0.67985428       0.20681281
C        1.05327013      -0.69856390      -0.23099614
N       -0.06652908      -1.31814286      -0.21122538
C       -1.26866693      -1.51465553      -0.24068150
C       -1.23611076       1.53677984       0.26896024
N       -0.03862523       1.31897333       0.21228920
H        1.97432408       1.16627092       0.54583660
H        1.94090292      -1.20081872      -0.58969114
H       -1.72607129      -2.04645458       0.59685503
H       -1.70277678       2.07675722      -0.55815971
10
Frame=1 idx=000236 GeodesicLength=0.0730190890903621 rxn_smarts="[c:1]1([H:7])[c:2]([H:8])[n:3][c:4]([H:9])[c:5]([H:10])[n:6]1>>[C-:1]([C-:2]([N+:3]#[C:4][H:9])[H:8])([N+:6]#[C:5][H:10])[H:7]"
C        1.07695215       0.68064067       0.20114072
C        1.06005778      -0.69946549      -0.22550497
N       -0.05865957      -1.32386744      -0.20673314
C       -1.27164240      -1.46750771      -0.23341171
C       -1.24011838       1.48955096       0.26167226
N       -0.03076579       1.32457383       0.20755463
H        1.98112341       1.16600850       0.54169797
H        1.94781619      -1.20072150      -0.58564306
H       -1.74393636      -2.01942552       0.58227448
H       -1.72082703       2.05021369      -0.54304720
10
Frame=2 idx=000236 GeodesicLength=0.14610104709591065 rxn_smarts="[c:1]1([H:7])[c:2]([H:8])[n:3][c:4]([H:9])[c:5]([H:10])[n:6]1>>[C-:1]([C-:2]([N+:3]#[C:4][H:9])[H:8])([N+:6]#[C:5][H:10])[H:7]"
C        1.08280042       0.68140507       0.19542689
C        1.06602109      -0.70031234      -0.22005762
N       -0.05190761      -1.32909240      -0.20356382
C       -1.27314457      -1.42340785      -0.22654343
C       -1.24256241       1.44537355       0.25475457
N       -0.02399969       1.32971480       0.20406786
H        1.98751759       1.16631084       0.53558647
H        1.95439989      -1.20124645      -0.57948311
H       -1.76099964      -1.99291817       0.56730855
H       -1.73812506       2.02417296      -0.52749637
10
Frame=3 idx=000236 GeodesicLength=0.21922430995143838 rxn_smarts="[c:1]1([H:7])[c:2]([H:8])[n:3][c:4]([H:9])[c:5]([H:10])[n:6]1>>[C-:1]([C-:2]([N+:3]#[C:4][H:9])[H:8])([N+:6]#[C:5][H:10])[H:7]"
C        1.08797879       0.68218497       0.18951720
C        1.07127856      -0.70110770      -0.21465166
N       -0.04609713      -1.33388679      -0.20146289
C       -1.27345647      -1.38199998      -0.22001461
C       -1.24369631       1.40395961       0.24822800
N       -0.01810069       1.33452702       0.20137022
H        1.99353485       1.16703672       0.52790330
H        1.96071109      -1.20234939      -0.57140025
H       -1.77731710      -1.96702330       0.55194756
H       -1.75483558       1.99865884      -0.51143688
10
Frame=4 idx=000236 GeodesicLength=0.29232938783210144 rxn_smarts="[c:1]1([H:7])[c:2]([H:8])[n:3][c:4]([H:9])[c:5]([H:10])[n:6]1>>[C-:1]([C-:2]([N+:3]#[C:4][H:9])[H:8])([N+:6]#[C:5][H:10])[H:7]"
C        1.09253216       0.68290438       0.18364803
C        1.07591572      -0.70184572      -0.20931925
N       -0.04107231      -1.33834904      -0.20027709
C       -1.27280545      -1.34310845      -0.21362195
C       -1.24385241       1.36506305       0.24180387
N       -0.01299632       1.33901656       0.19959950
H        1.99916303       1.16798123       0.51923141
H        1.96667519      -1.20370568      -0.56228082
H       -1.79280847      -1.94177232       0.53656100
H       -1.77075114       1.97381600      -0.49534470
10
Frame=5 idx=000236 GeodesicLength=0.3654809583691213 rxn_smarts="[c:1]1([H:7])[c:2]([H:8])[n:3][c:4]([H:9])[c:5]([H:10])[n:6]1>>[C-:1]([C-:2]([N+:3]#[C:4][H:9])[H:8])([N+:6]#[C:5][H:10])[H:7]"
C        1.09644355       0.68349892       0.17833379
C        1.07993867      -0.70244670      -0.20425616
N       -0.03673799      -1.34255192      -0.20002364
C       -1.27140047      -1.30657225      -0.20732452
C       -1.24324084       1.32834740       0.23530116
N       -0.00862787       1.34312428       0.19930625
H        2.00437790       1.16894692       0.51024460
H        1.97210512      -1.20480185      -0.55330565
H       -1.80741932      -1.91663272       0.52184648
H       -1.78543875       1.94908792      -0.48012231
10
Frame=6 idx=000236 GeodesicLength=0.4387688312696303 rxn_smarts="[c:1]1([H:7])[c:2]([H:8])[n:3][c:4]([H:9])[c:5]([H:10])[n:6]1>>[C-:1]([C-:2]([N+:3]#[C:4][H:9])[H:8])([N+:6]#[C:5][H:10])[H:7]"
C        1.10012243       0.68425384       0.17207497
C        1.08372824      -0.70322100      -0.19829909
N       -0.03280850      -1.34656861      -0.19936993
C       -1.26916601      -1.27186105      -0.20188534
C       -1.24172225       1.29354458       0.22971505
N       -0.00463939       1.34711302       0.19843683
H        2.00964033       1.17080647       0.49839391
H        1.97764582      -1.20686666      -0.54133097
H       -1.82231940      -1.89228463       0.50500897
H       -1.80048128       1.92508404      -0.46274441
10
Frame=7 idx=000236 GeodesicLength=0.5120105681163551 rxn_smarts="[c:1]1([H:7])[c:2]([H:8])[n:3][c:4]([H:9])[c:5]([H:10])[n:6]1>>[C-:1]([C-:2]([N+:3]#[C:4][H:9])[H:8])([N+:6]#[C:5][H:10])[H:7]"
C        1.10348762       0.68510115       0.16535724
C        1.08722736      -0.70409532      -0.19180668
N       -0.02926471      -1.35048641      -0.19867631
C       -1.26628584      -1.23896552      -0.19721766
C       -1.23952014       1.26053244       0.22484435
N       -0.00105851       1.35098231       0.19764276
H        2.01485822       1.17332146       0.48436283
H        1.98315258      -1.20953949      -0.52727768
H       -1.83719105      -1.86837911       0.48689896
H       -1.81540554       1.90152848      -0.44412782
10
Frame=8 idx=000236 GeodesicLength=0.5852721391670154 rxn_smarts="[c:1]1([H:7])[c:2]([H:8])[n:3][c:4]([H:9])[c:5]([H:10])[n:6]1>>[C-:1]([C-:2]([N+:3]#[C:4][H:9])[H:8])([N+:6]#[C:5][H:10])[H:7]"
C        1.10661831       0.68607968       0.15787467
C        1.09049030      -0.70507711      -0.18464249
N       -0.02604588      -1.35429953      -0.19783725
C       -1.26284370      -1.20765360      -0.19338314
C       -1.23669199       1.22912102       0.22082126
N        0.00221373       1.35477778       0.19659901
H        2.02007100       1.17652160       0.46783279
H        1.98871363      -1.21294251      -0.51059492
H       -1.85212667      -1.84494433       0.46708796
H       -1.83039873       1.87841701      -0.42375789
10
Frame=9 idx=000236 GeodesicLength=0.6585524739529007 rxn_smarts="[c:1]1([H:7])[c:2]([H:8])[n:3][c:4]([H:9])[c:5]([H:10])[n:6]1>>[C-:1]([C-:2]([N+:3]#[C:4][H:9])[H:8])([N+:6]#[C:5][H:10])[H:7]"
C        1.10949578       0.68713051       0.14974460
C        1.09352607      -0.70614056      -0.17678000
N       -0.02310565      -1.35802500      -0.19685940
C       -1.25893155      -1.17782982      -0.19022151
C       -1.23335663       1.19918002       0.21742504
N        0.00518847       1.35847189       0.19549342
H        2.02520743       1.18022494       0.44910449
H        1.99422067      -1.21680984      -0.49177910
H       -1.86699841      -1.82192631       0.44579120
H       -1.84524619       1.85572416      -0.40191874
10
Frame=10 idx=000236 GeodesicLength=0.7318391126994684 rxn_smarts="[c:1]1([H:7])[c:2]([H:8])[n:3][c:4]([H:9])[c:5]([H:10])[n:6]1>>[C-:1]([C-:2]([N+:3]#[C:4][H:9])[H:8])([N+:6]#[C:5][H:10])[H:7]"
C        1.11216731       0.68830492       0.14065737
C        1.09637185      -0.70731974      -0.16799653
N       -0.02040541      -1.36167702      -0.19572382
C       -1.25459861      -1.14932538      -0.18792759
C       -1.22955199       1.17055992       0.21488233
N        0.00792424       1.36210194       0.19419637
H        2.03032084       1.18454297       0.42756287
H        1.99975495      -1.22130000      -0.47009688
H       -1.88189911      -1.79930217       0.42251212
H       -1.86008407       1.83341456      -0.37806623
10
Frame=11 idx=000236 GeodesicLength=0.805149018285634 rxn_smarts="[c:1]1([H:7])[c:2]([H:8])[n:3][c:4]([H:9])[c:5]([H:10])[n:6]1>>[C-:1]([C-:2]([N+:3]#[C:4][H:9])[H:8])([N+:6]#[C:5][H:10])[H:7]"
C        1.11462515       0.68954674       0.13073529
C        1.09901965      -0.70856250      -0.15840061
N       -0.01790050      -1.36528075      -0.19439944
C       -1.24989958      -1.12208144      -0.18615024
C       -1.22534234       1.14320248       0.21283973
N        0.01046435       1.36569122       0.19267056
H        2.03522141       1.18906235       0.40432709
H        2.00510902      -1.22599193      -0.44667068
H       -1.89660058      -1.77694925       0.39782851
H       -1.87469657       1.81136309      -0.35278022
10
Frame=12 idx=000236 GeodesicLength=0.8784755007474482 rxn_smarts="[c:1]1([H:7])[c:2]([H:8])[n:3][c:4]([H:9])[c:5]([H:10])[n:6]1>>[C-:1]([C-:2]([N+:3]#[C:4][H:9])[H:8])([N+:6]#[C:5][H:10])[H:7]"
C        1.11685596       0.69081383       0.12000412
C        1.10146225      -0.70983559      -0.14797040
N       -0.01556320      -1.36884297      -0.19288934
C       -1.24488656      -1.09602747      -0.18475135
C       -1.22078707       1.11703130       0.21114704
N        0.01283139       1.36923730       0.19095864
H        2.03983761       1.19360289       0.37975974
H        2.01019739      -1.23068185      -0.42191660
H       -1.91099267      -1.75481542       0.37193452
H       -1.88895509       1.78951798      -0.32627635
10
Frame=13 idx=000236 GeodesicLength=0.9518212350076884 rxn_smarts="[c:1]1([H:7])[c:2]([H:8])[n:3][c:4]([H:9])[c:5]([H:10])[n:6]1>>[C-:1]([C-:2]([N+:3]#[C:4][H:9])[H:8])([N+:6]#[C:5][H:10])[H:7]"
C        1.11883302       0.69203788       0.10863105
C        1.10366682      -0.71107265      -0.13685256
N       -0.01338178      -1.37236097      -0.19125671
C       -1.23961969      -1.07111880      -0.18345605
C       -1.21595301       1.09200535       0.20953573
N        0.01504239       1.37273929       0.18911686
H        2.04406238       1.19787415       0.35468838
H        2.01489424      -1.23507449      -0.39667115
H       -1.92487183      -1.73282810       0.34536672
H       -1.90267254       1.76779833      -0.29910225
10
Frame=14 idx=000236 GeodesicLength=1.025182927212422 rxn_smarts="[c:1]1([H:7])[c:2]([H:8])[n:3][c:4]([H:9])[c:5]([H:10])[n:6]1>>[C-:1]([C-:2]([N+:3]#[C:4][H:9])[H:8])([N+:6]#[C:5][H:10])[H:7]"
C        1.12060142       0.69329289       0.09604290
C        1.10569271      -0.71234848      -0.12447851
N       -0.01129129      -1.37587186      -0.18925701
C       -1.23407220      -1.04718593      -0.18280550
C       -1.21080541       1.06795291       0.20853675
N        0.01715444       1.37623213       0.18689776
H        2.04805872       1.20225960       0.32745308
H        2.01939593      -1.23955622      -0.36927437
H       -1.93857952      -1.71099606       0.31680242
H       -1.91615479       1.74622101      -0.26991752
10
Frame=15 idx=000236 GeodesicLength=1.0984657011106584 rxn_smarts="[c:1]1([H:7])[c:2]([H:8])[n:3][c:4]([H:9])[c:5]([H:10])[n:6]1>>[C-:1]([C-:2]([N+:3]#[C:4][H:9])[H:8])([N+:6]#[C:5][H:10])[H:7]"
C        1.12209421       0.69447250       0.08260808
C        1.10746191      -0.71355675      -0.11120101
N       -0.00930357      -1.37939406      -0.18706337
C       -1.22831811      -1.02426206      -0.18232635
C       -1.20542878       1.04491291       0.20768560
N        0.01916092       1.37973841       0.18446257
H        2.05166187       1.20634413       0.29936125
H        2.02351168      -1.24371146      -0.34103444
H       -1.95176250      -1.68931581       0.28719365
H       -1.92907762       1.72477220      -0.23968598
10
Frame=16 idx=000236 GeodesicLength=1.171973013751392 rxn_smarts="[c:1]1([H:7])[c:2]([H:8])[n:3][c:4]([H:9])[c:5]([H:10])[n:6]1>>[C-:1]([C-:2]([N+:3]#[C:4][H:9])[H:8])([N+:6]#[C:5][H:10])[H:7]"
C        1.12331679       0.69550709       0.06829833
C        1.10898427      -0.71462321      -0.09698092
N       -0.00737076      -1.38285369      -0.18428994
C       -1.22233557      -1.00215886      -0.18230435
C       -1.19980182       1.02268907       0.20725893
N        0.02109879       1.38317610       0.18149176
H        2.05491302       1.21014142       0.26998957
H        2.02729052      -1.24754276      -0.31157097
H       -1.96455378      -1.66738462       0.25605576
H       -1.94154146       1.70304945      -0.20794817
