16
Frame=0 idx=001216 GeodesicLength=0.0 rxn_smarts="[C:1]([C:2]([C@@:3]([C:4]([H:13])([H:14])[H:15])([C:5](=[O:6])[H:16])[H:12])([H:10])[H:11])([H:7])([H:8])[H:9]>>[C:1]1([H:8])([H:9])[C:2]([H:10])([H:11])[C:3]1([C@@:5]([C:4]([H:13])([H:14])[H:15])([O:6][H:7])[H:16])[H:12]"
C        1.81932585       0.02006852      -0.42761460
C        1.00417289      -0.89110618       0.61292613
C        0.06761972      -0.56474027      -0.39430599
C       -2.06613136       0.24598830       0.42512844
C       -0.78456389       0.68808277      -0.33286541
O       -0.11614767       1.67957621       0.24095994
H        1.23851624       1.01354515      -0.56377162
H        2.59068708       0.43614226       0.22081783
H        2.25391025      -0.50440749      -1.27025994
H        1.37009464      -1.90646748       0.69991377
H        0.91585661      -0.32439021       1.53311582
H       -0.05464306      -1.27605067      -1.21125937
H       -1.81595195      -0.00310863       1.45808355
H       -2.73601939       1.10425324       0.43528724
H       -2.58517746      -0.59686559      -0.04127825
H       -1.10154851       0.87948011      -1.38487758
16
Frame=1 idx=001216 GeodesicLength=0.11298409570093035 rxn_smarts="[C:1]([C:2]([C@@:3]([C:4]([H:13])([H:14])[H:15])([C:5](=[O:6])[H:16])[H:12])([H:10])[H:11])([H:7])([H:8])[H:9]>>[C:1]1([H:8])([H:9])[C:2]([H:10])([H:11])[C:3]1([C@@:5]([C:4]([H:13])([H:14])[H:15])([O:6][H:7])[H:16])[H:12]"
C        1.81900634       0.01052336      -0.42376775
C        0.99489337      -0.88437059       0.61470589
C        0.05384722      -0.55208569      -0.39321879
C       -2.05336023       0.22353132       0.42424505
C       -0.77784066       0.71378014      -0.34552699
O       -0.10239137       1.69976333       0.22584488
H        1.25154725       1.03894755      -0.54631946
H        2.60389692       0.41611029       0.21471709
H        2.24598467      -0.52089732      -1.26646883
H        1.34008052      -1.90690616       0.70356753
H        0.90985443      -0.31706599       1.53508927
H       -0.07345302      -1.25826820      -1.21349114
H       -1.79932974       0.00255389       1.46256413
H       -2.74516577       1.06482611       0.42448974
H       -2.56463218      -0.63444958      -0.02211750
H       -1.10293776       0.90400752      -1.39431310
16
Frame=2 idx=001216 GeodesicLength=0.22589583613491118 rxn_smarts="[C:1]([C:2]([C@@:3]([C:4]([H:13])([H:14])[H:15])([C:5](=[O:6])[H:16])[H:12])([H:10])[H:11])([H:7])([H:8])[H:9]>>[C:1]1([H:8])([H:9])[C:2]([H:10])([H:11])[C:3]1([C@@:5]([C:4]([H:13])([H:14])[H:15])([O:6][H:7])[H:16])[H:12]"
C        1.81839557       0.00093955      -0.42018149
C        0.98595467      -0.87770544       0.61645064
C        0.04018604      -0.53960217      -0.39202027
C       -2.04056960       0.20132678       0.42319936
C       -0.77119786       0.73870457      -0.35739606
O       -0.08855221       1.71942210       0.21094999
H        1.26463599       1.06437895      -0.52855944
H        2.61636469       0.39641813       0.20806590
H        2.23771845      -0.53736315      -1.26288330
H        1.31056737      -1.90691117       0.70720150
H        0.90418711      -0.30986721       1.53705052
H       -0.09194487      -1.24053233      -1.21568417
H       -1.78426049       0.00821187       1.46645347
H       -2.75320015       1.02552219       0.41289135
H       -2.54401881      -0.67127515      -0.00265777
H       -1.10426590       0.92833250      -1.40288024
16
Frame=3 idx=001216 GeodesicLength=0.3387868931640825 rxn_smarts="[C:1]([C:2]([C@@:3]([C:4]([H:13])([H:14])[H:15])([C:5](=[O:6])[H:16])[H:12])([H:10])[H:11])([H:7])([H:8])[H:9]>>[C:1]1([H:8])([H:9])[C:2]([H:10])([H:11])[C:3]1([C@@:5]([C:4]([H:13])([H:14])[H:15])([O:6][H:7])[H:16])[H:12]"
C        1.81753227      -0.00871291      -0.41684049
C        0.97732376      -0.87111848       0.61814908
C        0.02664819      -0.52727559      -0.39075698
C       -2.02780357       0.17935469       0.42202523
C       -0.76460919       0.76290728      -0.36854583
O       -0.07462845       1.73858631       0.19622938
H        1.27780167       1.08987837      -0.51047947
H        2.62810849       0.37709262       0.20090313
H        2.22916867      -0.55384530      -1.25946764
H        1.28149431      -1.90650610       0.71083120
H        0.89880576      -0.30279475       1.53898211
H       -0.11011778      -1.22283264      -1.21787833
H       -1.77062569       0.01382376       1.46977740
H       -2.76017147       0.98637405       0.40051469
H       -2.52334122      -0.70739861       0.01718630
H       -1.10558575       0.95246730      -1.41062979
16
Frame=4 idx=001216 GeodesicLength=0.45171393639470286 rxn_smarts="[C:1]([C:2]([C@@:3]([C:4]([H:13])([H:14])[H:15])([C:5](=[O:6])[H:16])[H:12])([H:10])[H:11])([H:7])([H:8])[H:9]>>[C:1]1([H:8])([H:9])[C:2]([H:10])([H:11])[C:3]1([C@@:5]([C:4]([H:13])([H:14])[H:15])([O:6][H:7])[H:16])[H:12]"
C        1.81644884      -0.01846910      -0.41373293
C        0.96896906      -0.86461336       0.61979481
C        0.01324229      -0.51509188      -0.38946693
C       -2.01509853       0.15759240       0.42075680
C       -0.75805008       0.78643935      -0.37904374
O       -0.06061800       1.75728602       0.18164192
H        1.29105916       1.11549097      -0.49205916
H        2.63914398       0.35815842       0.19325497
H        2.22037978      -0.57039293      -1.25619361
H        1.25280982      -1.90571058       0.71447329
H        0.89366919      -0.29584220       1.54086969
H       -0.12797626      -1.20516356      -1.22010060
H       -1.75831690       0.01935036       1.47256035
H       -2.76612709       0.94739608       0.38739367
H       -2.50258946      -0.74285579       0.03745706
H       -1.10694582       0.97642579      -1.41760560
16
Frame=5 idx=001216 GeodesicLength=0.5647257134160745 rxn_smarts="[C:1]([C:2]([C@@:3]([C:4]([H:13])([H:14])[H:15])([C:5](=[O:6])[H:16])[H:12])([H:10])[H:11])([H:7])([H:8])[H:9]>>[C:1]1([H:8])([H:9])[C:2]([H:10])([H:11])[C:3]1([C@@:5]([C:4]([H:13])([H:14])[H:15])([O:6][H:7])[H:16])[H:12]"
C        1.81516859      -0.02836670      -0.41085418
C        0.96086152      -0.85819115       0.62138188
C       -0.00002736      -0.50303413      -0.38818038
C       -2.00247940       0.13601123       0.41942751
C       -0.75149778       0.80935338      -0.38894989
O       -0.04651868       1.77555319       0.16715773
H        1.30442290       1.14126413      -0.47326499
H        2.64949120       0.33963484       0.18513483
H        2.21137883      -0.58706419      -1.25303400
H        1.22445695      -1.90453739       0.71814215
H        0.88874649      -0.28899852       1.54269980
H       -0.14553419      -1.18751657      -1.22237022
H       -1.74723303       0.02476123       1.47482751
H       -2.77111600       0.90858468       0.37354174
H       -2.48173096      -0.77768300       0.05818336
H       -1.10838909       1.00022897      -1.42384283
16
Frame=6 idx=001216 GeodesicLength=0.6778592347054789 rxn_smarts="[C:1]([C:2]([C@@:3]([C:4]([H:13])([H:14])[H:15])([C:5](=[O:6])[H:16])[H:12])([H:10])[H:11])([H:7])([H:8])[H:9]>>[C:1]1([H:8])([H:9])[C:2]([H:10])([H:11])[C:3]1([C@@:5]([C:4]([H:13])([H:14])[H:15])([O:6][H:7])[H:16])[H:12]"
C        1.81370909      -0.03844553      -0.40820175
C        0.95297575      -0.85185371       0.62290845
C       -0.01315858      -0.49109058      -0.38692191
C       -1.98996911       0.11458947       0.41806446
C       -0.74493262       0.83169071      -0.39831730
O       -0.03232580       1.79340991       0.15274554
H        1.31789920       1.16724865      -0.45404792
H        2.65916013       0.32154565       0.17654467
H        2.20218805      -0.60391358      -1.24997456
H        1.19639070      -1.90300015       0.72185815
H        0.88401271      -0.28225080       1.54446103
H       -0.16280809      -1.16989114      -1.22469869
H       -1.73728851       0.03003294       1.47659989
H       -2.77517453       0.86992960       0.35898413
H       -2.46072427      -0.81189703       0.07936601
H       -1.10995412       1.02389561      -1.42937021
16
Frame=7 idx=001216 GeodesicLength=0.7911104813163707 rxn_smarts="[C:1]([C:2]([C@@:3]([C:4]([H:13])([H:14])[H:15])([C:5](=[O:6])[H:16])[H:12])([H:10])[H:11])([H:7])([H:8])[H:9]>>[C:1]1([H:8])([H:9])[C:2]([H:10])([H:11])[C:3]1([C@@:5]([C:4]([H:13])([H:14])[H:15])([O:6][H:7])[H:16])[H:12]"
C        1.81207803      -0.04873813      -0.40578009
C        0.94528842      -0.84560042       0.62437299
C       -0.02615507      -0.47925092      -0.38570871
C       -1.97757982       0.09330173       0.41670058
C       -0.73833511       0.85349410      -0.40719777
O       -0.01803415       1.81088043       0.13837381
H        1.33150460       1.19348447      -0.43434832
H        2.66816565       0.30390934       0.16748299
H        2.19281727      -0.62099370      -1.24700276
H        1.16856819      -1.90110435       0.72564031
H        0.87944883      -0.27558400       1.54614206
H       -0.17981927      -1.15228595      -1.22708976
H       -1.72840213       0.03514290       1.47790363
H       -2.77834168       0.83141001       0.34373849
H       -2.43952696      -0.84550573       0.10098535
H       -1.11167680       1.04744023      -1.43421280
16
Frame=8 idx=001216 GeodesicLength=0.904480690340574 rxn_smarts="[C:1]([C:2]([C@@:3]([C:4]([H:13])([H:14])[H:15])([C:5](=[O:6])[H:16])[H:12])([H:10])[H:11])([H:7])([H:8])[H:9]>>[C:1]1([H:8])([H:9])[C:2]([H:10])([H:11])[C:3]1([C@@:5]([C:4]([H:13])([H:14])[H:15])([O:6][H:7])[H:16])[H:12]"
C        1.81027719      -0.05928066      -0.40359697
C        0.93777946      -0.83942941       0.62577564
C       -0.03902273      -0.46750546      -0.38455414
C       -1.96532160       0.07212430       0.41535969
C       -0.73168744       0.87480071      -0.41564067
O       -0.00363681       1.82798587       0.12401243
H        1.34524813       1.22001432      -0.41408873
H        2.67651876       0.28674851       0.15793527
H        2.18326797      -0.63836318      -1.24410797
H        1.14095248      -1.89885448       0.72951355
H        0.87504146      -0.26897670       1.54773299
H       -0.19659446      -1.13470412      -1.22954280
H       -1.72050430       0.04007406       1.47875701
H       -2.78063808       0.79299653       0.32783470
H       -2.41809106      -0.87851077       0.12300227
H       -1.11358896       1.07088046      -1.43839226
16
Frame=9 idx=001216 GeodesicLength=1.0177479780580094 rxn_smarts="[C:1]([C:2]([C@@:3]([C:4]([H:13])([H:14])[H:15])([C:5](=[O:6])[H:16])[H:12])([H:10])[H:11])([H:7])([H:8])[H:9]>>[C:1]1([H:8])([H:9])[C:2]([H:10])([H:11])[C:3]1([C@@:5]([C:4]([H:13])([H:14])[H:15])([O:6][H:7])[H:16])[H:12]"
C        1.80829221      -0.07005996      -0.40165047
C        0.93043982      -0.83332534       0.62712947
C       -0.05178736      -0.45586083      -0.38343834
C       -1.95320813       0.05106608       0.41406380
C       -0.72498968       0.89563724      -0.42368905
O        0.01086391       1.84475628       0.10961514
H        1.35915683       1.24680740      -0.39312882
H        2.68422872       0.27003577       0.14784156
H        2.17351581      -0.65601605      -1.24129315
H        1.11359171      -1.89628797       0.73347586
H        0.87079395      -0.26238930       1.54923960
H       -0.21318076      -1.11717393      -1.23201845
H       -1.71354542       0.04488001       1.47916806
H       -2.78208779       0.75459278       0.31134345
H       -2.39639864      -0.91086605       0.14528482
H       -1.11568518       1.09420388      -1.44194347
16
Frame=10 idx=001216 GeodesicLength=1.131150019531874 rxn_smarts="[C:1]([C:2]([C@@:3]([C:4]([H:13])([H:14])[H:15])([C:5](=[O:6])[H:16])[H:12])([H:10])[H:11])([H:7])([H:8])[H:9]>>[C:1]1([H:8])([H:9])[C:2]([H:10])([H:11])[C:3]1([C@@:5]([C:4]([H:13])([H:14])[H:15])([O:6][H:7])[H:16])[H:12]"
C        1.80613862      -0.08115776      -0.39995773
C        0.92324801      -0.82729387       0.62842607
C       -0.06443543      -0.44429539      -0.38239502
C       -1.94123169       0.03007967       0.41284693
C       -0.71820254       0.91604462      -0.43140040
O        0.02548920       1.86119985       0.09515345
H        1.37320838       1.27398033      -0.37141495
H        2.69130118       0.25383949       0.13720187
H        2.16357830      -0.67407072      -1.23853592
H        1.08637193      -1.89337066       0.73757908
H        0.86669074      -0.25581415       1.55063720
H       -0.22957998      -1.09968154      -1.23454056
H       -1.70744326       0.04945455       1.47917126
H       -2.78270810       0.71624908       0.29425442
H       -2.37440124      -0.94260681       0.16784691
H       -1.11802413       1.11744333      -1.44487261
16
Frame=11 idx=001216 GeodesicLength=1.2446870943641348 rxn_smarts="[C:1]([C:2]([C@@:3]([C:4]([H:13])([H:14])[H:15])([C:5](=[O:6])[H:16])[H:12])([H:10])[H:11])([H:7])([H:8])[H:9]>>[C:1]1([H:8])([H:9])[C:2]([H:10])([H:11])[C:3]1([C@@:5]([C:4]([H:13])([H:14])[H:15])([O:6][H:7])[H:16])[H:12]"
C        1.80380774      -0.09260759      -0.39853038
C        0.91619382      -0.82133047       0.62967037
C       -0.07697616      -0.43280272      -0.38141803
C       -1.92938731       0.00914666       0.41173416
C       -0.71130564       0.93605004      -0.43882129
O        0.04025503       1.87733227       0.08058294
H        1.38739392       1.30158090      -0.34883532
H        2.69774945       0.23817909       0.12598271
H        2.15343608      -0.69258447      -1.23582874
H        1.05926587      -1.89009972       0.74184214
H        0.86273744      -0.24922852       1.55192021
H       -0.24582091      -1.08223856      -1.23708690
H       -1.70213448       0.05378302       1.47878552
H       -2.78251061       0.67793428       0.27659146
H       -2.35207212      -0.97372567       0.19060651
H       -1.12063211       1.14061145      -1.44719536
16
Frame=12 idx=001216 GeodesicLength=1.3583430829291767 rxn_smarts="[C:1]([C:2]([C@@:3]([C:4]([H:13])([H:14])[H:15])([C:5](=[O:6])[H:16])[H:12])([H:10])[H:11])([H:7])([H:8])[H:9]>>[C:1]1([H:8])([H:9])[C:2]([H:10])([H:11])[C:3]1([C@@:5]([C:4]([H:13])([H:14])[H:15])([O:6][H:7])[H:16])[H:12]"
C        1.80129113      -0.10444131      -0.39738066
C        0.90927018      -0.81542821       0.63086652
C       -0.08941903      -0.42138221      -0.38050664
C       -1.91767253      -0.01174605       0.41074595
C       -0.70427689       0.95567824      -0.44600591
O        0.05517741       1.89316462       0.06584853
H        1.40170204       1.32965093      -0.32524765
H        2.70357260       0.22307904       0.11413511
H        2.14307359      -0.71161418      -1.23316447
H        1.03225844      -1.88647067       0.74629623
H        0.85893538      -0.24260343       1.55308038
H       -0.26192764      -1.06486107      -1.23964073
H       -1.69755718       0.05784022       1.47802930
H       -2.78150064       0.63963742       0.25840604
H       -2.32939740      -1.00421356       0.21346737
H       -1.12352946       1.16371024      -1.44892938
16
Frame=13 idx=001216 GeodesicLength=1.4721221762549006 rxn_smarts="[C:1]([C:2]([C@@:3]([C:4]([H:13])([H:14])[H:15])([C:5](=[O:6])[H:16])[H:12])([H:10])[H:11])([H:7])([H:8])[H:9]>>[C:1]1([H:8])([H:9])[C:2]([H:10])([H:11])[C:3]1([C@@:5]([C:4]([H:13])([H:14])[H:15])([O:6][H:7])[H:16])[H:12]"
C        1.79857360      -0.11669430      -0.39652232
C        0.90247184      -0.80958161       0.63201791
C       -0.10177529      -0.41003024      -0.37965371
C       -1.90607336      -0.03261386       0.40990298
C       -0.69708960       0.97495154      -0.45300975
O        0.07028345       1.90870995       0.05089083
H        1.41611301       1.35823847      -0.30048664
H        2.70876796       0.20857152       0.10159919
H        2.13246729      -0.73122091      -1.23053579
H        1.00532212      -1.88247677       0.75096739
H        0.85529427      -0.23591467       1.55410953
H       -0.27793063      -1.04756441      -1.24217988
H       -1.69365376       0.06161662       1.47691784
H       -2.77967794       0.60133100       0.23973177
H       -2.30635918      -1.03406746       0.23634073
H       -1.12673378       1.18674513      -1.45009009
16
Frame=14 idx=001216 GeodesicLength=1.5859911934919904 rxn_smarts="[C:1]([C:2]([C@@:3]([C:4]([H:13])([H:14])[H:15])([C:5](=[O:6])[H:16])[H:12])([H:10])[H:11])([H:7])([H:8])[H:9]>>[C:1]1([H:8])([H:9])[C:2]([H:10])([H:11])[C:3]1([C@@:5]([C:4]([H:13])([H:14])[H:15])([O:6][H:7])[H:16])[H:12]"
C        1.79564038      -0.12939481      -0.39597143
C        0.89579190      -0.80378990       0.63312635
C       -0.11405912      -0.39875000      -0.37885568
C       -1.89458346      -0.05345703       0.40921649
C       -0.68971892       0.99388302      -0.45989190
O        0.08560707       1.92396757       0.03562795
H        1.43059110       1.38738166      -0.27436140
H        2.71331970       0.19470151       0.08831604
H        2.12160292      -0.75146002      -1.22793278
H        0.97845322      -1.87812004       0.75587959
H        0.85181751      -0.22914054       1.55499683
H       -0.29385522      -1.03036816      -1.24468641
H       -1.69037029       0.06510211       1.47546453
H       -2.77703167       0.56301041       0.22062713
H       -2.28294660      -1.06328244       0.25914254
H       -1.13025853       1.20971667      -1.45069786
16
Frame=15 idx=001216 GeodesicLength=1.699923219382324 rxn_smarts="[C:1]([C:2]([C@@:3]([C:4]([H:13])([H:14])[H:15])([C:5](=[O:6])[H:16])[H:12])([H:10])[H:11])([H:7])([H:8])[H:9]>>[C:1]1([H:8])([H:9])[C:2]([H:10])([H:11])[C:3]1([C@@:5]([C:4]([H:13])([H:14])[H:15])([O:6][H:7])[H:16])[H:12]"
C        1.79247286      -0.14257465      -0.39574286
C        0.88922665      -0.79805195       0.63419217
C       -0.12628440      -0.38754370      -0.37810685
C       -1.88318686      -0.07427928       0.40869942
C       -0.68213454       1.01248694      -0.46671691
O        0.10119463       1.93894097       0.01997075
H        1.44509182       1.41711323      -0.24664849
H        2.71720480       0.18152439       0.07420649
H        2.11046194      -0.77238892      -1.22534407
H        0.95163756      -1.87339836       0.76105660
H        0.84851321      -0.22226141       1.55573122
H       -0.30972957      -1.01329309      -1.24714188
H       -1.68765248       0.06829566       1.47368002
H       -2.77354952       0.52466024       0.20113791
H       -2.25915139      -1.09185642       0.28179699
H       -1.13411472       1.23262634      -1.45077051
16
Frame=16 idx=001216 GeodesicLength=1.8138758407606823 rxn_smarts="[C:1]([C:2]([C@@:3]([C:4]([H:13])([H:14])[H:15])([C:5](=[O:6])[H:16])[H:12])([H:10])[H:11])([H:7])([H:8])[H:9]>>[C:1]1([H:8])([H:9])[C:2]([H:10])([H:11])[C:3]1([C@@:5]([C:4]([H:13])([H:14])[H:15])([O:6][H:7])[H:16])[H:12]"
C        1.78905369      -0.15625982      -0.39585045
C        0.88277213      -0.79237118       0.63521192
C       -0.13846536      -0.37641675      -0.37740437
C       -1.87187002      -0.09507593       0.40836005
C       -0.67430407       1.03076938      -0.47355549
O        0.11711216       1.95362053       0.00380205
H        1.45954466       1.44746078      -0.21709941
H        2.72038886       0.16911431       0.05919389
H        2.09903344      -0.79405876      -1.22275279
H        0.92486980      -1.86832010       0.76651097
H        0.84538512      -0.21526489       1.55630132
H       -0.32557930      -0.99636412      -1.24952963
H       -1.68544776       0.07120147       1.47157178
H       -2.76921081       0.48628301       0.18132894
H       -2.23497173      -1.11978819       0.30423961
H       -1.13831081       1.25547026      -1.45032838
