13
Frame=0 idx=008766 GeodesicLength=0.0 rxn_smarts="[O:1]=[C:2]([C@@:3]1([H:9])[O:4][C@@:5]2([H:10])[C:6]([H:11])([H:12])[C@@:7]12[H:13])[H:8]>>[O:1]=[C:2]([C@@:3]1([H:9])[O:4][C@:5]([C:6]([H:11])([H:12])[H:13])([H:10])[C:7]1)[H:8]"
O        2.05161507       1.42486632      -1.42439704
C        1.59835287       0.91808476      -0.43900613
C        0.93336989      -0.43351731      -0.44066045
O        0.65178179      -0.97285224       0.86176380
C       -0.71715295      -1.04873827       0.47851676
C       -1.36027375       0.31238309       0.50687735
C       -0.52633900      -0.56841628      -0.93410410
H        1.62158264       1.42490471       0.54776642
H        1.52554343      -1.13330783      -1.03960018
H       -1.27223907      -1.91337209       0.82290660
H       -2.44369780       0.28300566       0.48823167
H       -0.90627538       1.01916117       1.19205586
H       -1.15626775       0.68779835      -0.62035059
13
Frame=1 idx=008766 GeodesicLength=0.057135112581274926 rxn_smarts="[O:1]=[C:2]([C@@:3]1([H:9])[O:4][C@@:5]2([H:10])[C:6]([H:11])([H:12])[C@@:7]12[H:13])[H:8]>>[O:1]=[C:2]([C@@:3]1([H:9])[O:4][C@:5]([C:6]([H:11])([H:12])[H:13])([H:10])[C:7]1)[H:8]"
O        2.06788633       1.41427218      -1.43058050
C        1.60899097       0.91563153      -0.44378627
C        0.93662419      -0.43313823      -0.44021960
O        0.65276105      -0.96432288       0.86467879
C       -0.71617381      -1.04355558       0.48017167
C       -1.36922595       0.31195006       0.51164617
C       -0.52256483      -0.55767353      -0.92922461
H        1.63240891       1.42695536       0.54054930
H        1.52609192      -1.13731080      -1.03693536
H       -1.26641070      -1.91710398       0.81014242
H       -2.45246258       0.27065541       0.49639104
H       -0.92515967       1.01636622       1.20597136
H       -1.17276585       0.69727424      -0.62880441
13
Frame=2 idx=008766 GeodesicLength=0.11429975222885042 rxn_smarts="[O:1]=[C:2]([C@@:3]1([H:9])[O:4][C@@:5]2([H:10])[C:6]([H:11])([H:12])[C@@:7]12[H:13])[H:8]>>[O:1]=[C:2]([C@@:3]1([H:9])[O:4][C@:5]([C:6]([H:11])([H:12])[H:13])([H:10])[C:7]1)[H:8]"
O        2.08435199       1.40342451      -1.43683577
C        1.61990074       0.91308093      -0.44862537
C        0.93991048      -0.43266891      -0.43972948
O        0.65373447      -0.95551292       0.86765579
C       -0.71517734      -1.03825223       0.48183537
C       -1.37834172       0.31145497       0.51653792
C       -0.51875865      -0.54647801      -0.92419791
H        1.64369311       1.42896180       0.53321486
H        1.52645382      -1.14134136      -1.03424036
H       -1.26030407      -1.92059598       0.79721289
H       -2.46124178       0.25806321       0.50443030
H       -0.94448979       1.01323765       1.22018998
H       -1.18973125       0.70662634      -0.63744823
13
Frame=3 idx=008766 GeodesicLength=0.17147519543619588 rxn_smarts="[O:1]=[C:2]([C@@:3]1([H:9])[O:4][C@@:5]2([H:10])[C:6]([H:11])([H:12])[C@@:7]12[H:13])[H:8]>>[O:1]=[C:2]([C@@:3]1([H:9])[O:4][C@:5]([C:6]([H:11])([H:12])[H:13])([H:10])[C:7]1)[H:8]"
O        2.10094216       1.39235437      -1.44315948
C        1.63109851       0.91041392      -0.45350634
C        0.94323256      -0.43211611      -0.43918893
O        0.65470581      -0.94643326       0.87069134
C       -0.71416177      -1.03282253       0.48351175
C       -1.38760603       0.31090305       0.52154852
C       -0.51491233      -0.53482624      -0.91901499
H        1.65543350       1.43090508       0.52577963
H        1.52662491      -1.14539784      -1.03152531
H       -1.25392890      -1.92381856       0.78414016
H       -2.47001705       0.24524789       0.51232800
H       -0.96425208       1.00976115       1.23470589
H       -1.20715929       0.71582909      -0.64631025
13
Frame=4 idx=008766 GeodesicLength=0.2286431415696906 rxn_smarts="[O:1]=[C:2]([C@@:3]1([H:9])[O:4][C@@:5]2([H:10])[C:6]([H:11])([H:12])[C@@:7]12[H:13])[H:8]>>[O:1]=[C:2]([C@@:3]1([H:9])[O:4][C@:5]([C:6]([H:11])([H:12])[H:13])([H:10])[C:7]1)[H:8]"
O        2.11758521       1.38109690      -1.44954743
C        1.64259915       0.90761113      -0.45840978
C        0.94659435      -0.43148861      -0.43859718
O        0.65567991      -0.93709879       0.87378117
C       -0.71312531      -1.02726166       0.48520566
C       -1.39700150       0.31030096       0.52667468
C       -0.51101876      -0.52271723      -0.91366789
H        1.66762169       1.43276849       0.51826231
H        1.52660218      -1.14948015      -1.02880200
H       -1.24729714      -1.92674399       0.77094681
H       -2.47876896       0.23223206       0.52006455
H       -0.98442728       1.00592647       1.24951044
H       -1.22504355       0.72485442      -0.65542134
13
Frame=5 idx=008766 GeodesicLength=0.28580714014637143 rxn_smarts="[O:1]=[C:2]([C@@:3]1([H:9])[O:4][C@@:5]2([H:10])[C:6]([H:11])([H:12])[C@@:7]12[H:13])[H:8]>>[O:1]=[C:2]([C@@:3]1([H:9])[O:4][C@:5]([C:6]([H:11])([H:12])[H:13])([H:10])[C:7]1)[H:8]"
O        2.13420841       1.36969031      -1.45599360
C        1.65441347       0.90465387      -0.46331303
C        0.94999817      -0.43079736      -0.43795343
O        0.65666294      -0.92753063       0.87691960
C       -0.71206598      -1.02156697       0.48692370
C       -1.40650776       0.30965341       0.53191483
C       -0.50707504      -0.51015351      -0.90814489
H        1.68023711       1.43453976       0.51068463
H        1.52638299      -1.15358843      -1.02608652
H       -1.24042264      -1.92934423       0.75766013
H       -2.48747373       0.21904352       0.52762290
H       -1.00498852       1.00172054       1.26458760
H       -1.24336943       0.73367973      -0.66482192
13
Frame=6 idx=008766 GeodesicLength=0.34297174640565425 rxn_smarts="[O:1]=[C:2]([C@@:3]1([H:9])[O:4][C@@:5]2([H:10])[C:6]([H:11])([H:12])[C@@:7]12[H:13])[H:8]>>[O:1]=[C:2]([C@@:3]1([H:9])[O:4][C@:5]([C:6]([H:11])([H:12])[H:13])([H:10])[C:7]1)[H:8]"
O        2.15073162       1.35818491      -1.46249389
C        1.66655533       0.90152702      -0.46818386
C        0.95344671      -0.43005876      -0.43726370
O        0.65766411      -0.91775573       0.88009881
C       -0.71098491      -1.01573668       0.48867678
C       -1.41610772       0.30897008       0.53727045
C       -0.50309555      -0.49714508      -0.90244571
H        1.69326201       1.43621968       0.50309732
H        1.52597310      -1.15773318      -1.02341604
H       -1.23332767      -1.93159096       0.74431747
H       -2.49610758       0.20571516       0.53499744
H       -1.02590279       0.99714605       1.27991623
H       -1.26210664       0.74225748      -0.67457130
13
Frame=7 idx=008766 GeodesicLength=0.39989873014283017 rxn_smarts="[O:1]=[C:2]([C@@:3]1([H:9])[O:4][C@@:5]2([H:10])[C:6]([H:11])([H:12])[C@@:7]12[H:13])[H:8]>>[O:1]=[C:2]([C@@:3]1([H:9])[O:4][C@:5]([C:6]([H:11])([H:12])[H:13])([H:10])[C:7]1)[H:8]"
O        2.16705710       1.34664374      -1.46903998
C        1.67904431       0.89818369      -0.47302473
C        0.95695150      -0.42924583      -0.43650389
O        0.65867566      -0.90775618       0.88332838
C       -0.70987403      -1.00972998       0.49044666
C       -1.42574799       0.30830380       0.54268527
C       -0.49896764      -0.48366307      -0.89652349
H        1.70675884       1.43765553       0.49544204
H        1.52534581      -1.16184017      -1.02072001
H       -1.22603048      -1.93347006       0.73089418
H       -2.50463459       0.19231265       0.54216235
H       -1.04718036       0.99215424       1.29552929
H       -1.28139814       0.75045165      -0.68467608
13
Frame=8 idx=008766 GeodesicLength=0.45671788085520715 rxn_smarts="[O:1]=[C:2]([C@@:3]1([H:9])[O:4][C@@:5]2([H:10])[C:6]([H:11])([H:12])[C@@:7]12[H:13])[H:8]>>[O:1]=[C:2]([C@@:3]1([H:9])[O:4][C@:5]([C:6]([H:11])([H:12])[H:13])([H:10])[C:7]1)[H:8]"
O        2.18328507       1.33500891      -1.47563584
C        1.69187030       0.89465960      -0.47781834
C        0.96049599      -0.42837137      -0.43569945
O        0.65971136      -0.89754342       0.88659172
C       -0.70873914      -1.00356475       0.49225503
C       -1.43546644       0.30762292       0.54821792
C       -0.49479688      -0.46969461      -0.89040661
H        1.72068134       1.43898509       0.48779261
H        1.52450073      -1.16596563      -1.01808328
H       -1.21852761      -1.93495546       0.71741064
H       -2.51307294       0.17879229       0.54914730
H       -1.06879848       0.98676218       1.31140252
H       -1.30114330       0.75826423      -0.69517422
13
Frame=9 idx=008766 GeodesicLength=0.5136153967506517 rxn_smarts="[O:1]=[C:2]([C@@:3]1([H:9])[O:4][C@@:5]2([H:10])[C:6]([H:11])([H:12])[C@@:7]12[H:13])[H:8]>>[O:1]=[C:2]([C@@:3]1([H:9])[O:4][C@:5]([C:6]([H:11])([H:12])[H:13])([H:10])[C:7]1)[H:8]"
O        2.19950723       1.32321024      -1.48229028
C        1.70503222       0.89095438      -0.48258156
C        0.96407150      -0.42741725      -0.43484455
O        0.66077593      -0.88709073       0.88989771
C       -0.70757128      -0.99723592       0.49410792
C       -1.44528566       0.30690461       0.55390467
C       -0.49057214      -0.45518957      -0.88406480
H        1.73503758       1.44021553       0.48011307
H        1.52340250      -1.17009809      -1.01549832
H       -1.21078425      -1.93605824       0.70384056
H       -2.52144381       0.16510354       0.55595026
H       -1.09078603       0.98094595       1.32755155
H       -1.32138381       0.76575555      -0.70608623
13
Frame=10 idx=008766 GeodesicLength=0.5703565556756172 rxn_smarts="[O:1]=[C:2]([C@@:3]1([H:9])[O:4][C@@:5]2([H:10])[C:6]([H:11])([H:12])[C@@:7]12[H:13])[H:8]>>[O:1]=[C:2]([C@@:3]1([H:9])[O:4][C@:5]([C:6]([H:11])([H:12])[H:13])([H:10])[C:7]1)[H:8]"
O        2.21559976       1.31135595      -1.48898753
C        1.71854738       0.88704463      -0.48730089
C        0.96767988      -0.42636582      -0.43392407
O        0.66185908      -0.87639356       0.89325134
C       -0.70637746      -0.99071533       0.49599782
C       -1.45516884       0.30619033       0.55969305
C       -0.48625183      -0.44014320      -0.87745695
H        1.74993153       1.44122832       0.47241534
H        1.52203575      -1.17418424      -1.01293998
H       -1.20284546      -1.93675410       0.69018506
H       -2.52970664       0.15131701       0.56258027
H       -1.11312005       0.97467875       1.34394119
H       -1.34218311       0.77274128      -0.71745466
13
Frame=11 idx=008766 GeodesicLength=0.6270749414174034 rxn_smarts="[O:1]=[C:2]([C@@:3]1([H:9])[O:4][C@@:5]2([H:10])[C:6]([H:11])([H:12])[C@@:7]12[H:13])[H:8]>>[O:1]=[C:2]([C@@:3]1([H:9])[O:4][C@:5]([C:6]([H:11])([H:12])[H:13])([H:10])[C:7]1)[H:8]"
O        2.23163216       1.29938610      -1.49574813
C        1.73241788       0.88294047      -0.49197479
C        0.97131268      -0.42520723      -0.43294748
O        0.66297171      -0.86543355       0.89665187
C       -0.70515560      -0.98399569       0.49793809
C       -1.46514244       0.30547242       0.56562576
C       -0.48186085      -0.42450697      -0.87058310
H        1.76537875       1.44206139       0.46472475
H        1.52038133      -1.17823860      -1.01044091
H       -1.19468850      -1.93702732       0.67643488
H       -2.53788238       0.13739664       0.56903852
H       -1.13582501       0.96794872       1.36060754
H       -1.36353972       0.77920364      -0.72932701
13
Frame=12 idx=008766 GeodesicLength=0.6837426237773528 rxn_smarts="[O:1]=[C:2]([C@@:3]1([H:9])[O:4][C@@:5]2([H:10])[C:6]([H:11])([H:12])[C@@:7]12[H:13])[H:8]>>[O:1]=[C:2]([C@@:3]1([H:9])[O:4][C@:5]([C:6]([H:11])([H:12])[H:13])([H:10])[C:7]1)[H:8]"
O        2.24765222       1.28725145      -1.50257479
C        1.74664675       0.87863824      -0.49662046
C        0.97495881      -0.42391137      -0.43190262
O        0.66410901      -0.85416564       0.90010886
C       -0.70389546      -0.97705223       0.49992848
C       -1.47522238       0.30474873       0.57171287
C       -0.47738581      -0.40821017      -0.86341345
H        1.78146773       1.44268431       0.45702095
H        1.51839297      -1.18224416      -1.00797508
H       -1.18627586      -1.93685710       0.66253521
H       -2.54598086       0.12330655       0.57531894
H       -1.15893320       0.96072744       1.37755905
H       -1.38553393       0.78508394      -0.74169797
13
Frame=13 idx=008766 GeodesicLength=0.7403965380300745 rxn_smarts="[O:1]=[C:2]([C@@:3]1([H:9])[O:4][C@@:5]2([H:10])[C:6]([H:11])([H:12])[C@@:7]12[H:13])[H:8]>>[O:1]=[C:2]([C@@:3]1([H:9])[O:4][C@:5]([C:6]([H:11])([H:12])[H:13])([H:10])[C:7]1)[H:8]"
O        2.26368609       1.27496051      -1.50947262
C        1.76125737       0.87413811      -0.50123173
C        0.97861667      -0.42246301      -0.43079500
O        0.66527487      -0.84258370       0.90362401
C       -0.70260835      -0.96987391       0.50197517
C       -1.48541254       0.30402852       0.57796946
C       -0.47282806      -0.39122211      -0.85592389
H        1.79821958       1.44309605       0.44931738
H        1.51605139      -1.18618028      -1.00556952
H       -1.17763997      -1.93623399       0.64848345
H       -2.55400239       0.10906128       0.58144831
H       -1.18244111       0.95299364       1.39480924
H       -1.40817356       0.79027890      -0.75463427
13
Frame=14 idx=008766 GeodesicLength=0.7970069083278192 rxn_smarts="[O:1]=[C:2]([C@@:3]1([H:9])[O:4][C@@:5]2([H:10])[C:6]([H:11])([H:12])[C@@:7]12[H:13])[H:8]>>[O:1]=[C:2]([C@@:3]1([H:9])[O:4][C@:5]([C:6]([H:11])([H:12])[H:13])([H:10])[C:7]1)[H:8]"
O        2.27970170       1.26250876      -1.51641295
C        1.77623253       0.86942215      -0.50578952
C        0.98226617      -0.42084918      -0.42961796
O        0.66647540      -0.83069292       0.90718870
C       -0.70128371      -0.96244197       0.50407956
C       -1.49569212       0.30332088       0.58439725
C       -0.46819265      -0.37349748      -0.84807094
H        1.81561598       1.44326564       0.44162688
H        1.51331601      -1.19001912      -1.00323543
H       -1.16876756      -1.93511886       0.63427148
H       -2.56190331       0.09468775       0.58743603
H       -1.20631305       0.94471733       1.41232041
H       -1.43145540       0.79469703      -0.76819350
13
Frame=15 idx=008766 GeodesicLength=0.8536059842309607 rxn_smarts="[O:1]=[C:2]([C@@:3]1([H:9])[O:4][C@@:5]2([H:10])[C:6]([H:11])([H:12])[C@@:7]12[H:13])[H:8]>>[O:1]=[C:2]([C@@:3]1([H:9])[O:4][C@:5]([C:6]([H:11])([H:12])[H:13])([H:10])[C:7]1)[H:8]"
O        2.29579321       1.24985315      -1.52341995
C        1.79160347       0.86450129      -0.51031590
C        0.98590402      -0.41903130      -0.42837383
O        0.66770690      -0.81844019       0.91081610
C       -0.69992872      -0.95472903       0.50624763
C       -1.50609879       0.30263091       0.59102231
C       -0.46346881      -0.35495738      -0.83983438
H        1.83378898       1.44317437       0.43394871
H        1.51014271      -1.19374050      -1.00097955
H       -1.15965406      -1.93349270       0.61985369
H       -2.56972291       0.08014090       0.59328835
H       -1.23060486       0.93587641       1.43014726
H       -1.45546113       0.79821408      -0.78240044
13
Frame=16 idx=008766 GeodesicLength=0.9102222632125234 rxn_smarts="[O:1]=[C:2]([C@@:3]1([H:9])[O:4][C@@:5]2([H:10])[C:6]([H:11])([H:12])[C@@:7]12[H:13])[H:8]>>[O:1]=[C:2]([C@@:3]1([H:9])[O:4][C@:5]([C:6]([H:11])([H:12])[H:13])([H:10])[C:7]1)[H:8]"
O        2.31198607       1.23696296      -1.53050143
C        1.80737031       0.85937914      -0.51482313
C        0.98951080      -0.41696710      -0.42705585
O        0.66896961      -0.80577483       0.91451462
C       -0.69853969      -0.94670085       0.50848676
C       -1.51665828       0.30196079       0.59786042
C       -0.45866051      -0.33551473      -0.83116152
H        1.85287763       1.44275544       0.42630027
H        1.50647424      -1.19730518      -0.99880682
H       -1.15027365      -1.93131822       0.60519742
H       -2.57746663       0.06539698       0.59900558
H       -1.25535359       0.92642777       1.44829564
H       -1.48023631       0.80069783      -0.79731198
