15
Frame=0 idx=007147 GeodesicLength=0.0 rxn_smarts="[O:1]([C:2]1([C:3]([C:4](=[O:5])[H:11])([H:9])[H:10])[C:6]([H:12])([H:13])[C:7]1([H:14])[H:15])[H:8]>>[C:2]1([C:3]([C:4](=[O:5])[H:11])([H:9])[H:10])=[C:7]([H:15])[C:6]1([H:12])[H:13].[O:1]([H:8])[H:14]"
O       -0.08601976      -0.25413780      -1.65430731
C       -0.42368061      -0.09609251      -0.07895624
C        0.79973785      -0.41251595       0.72336839
C        2.05046200       0.30155961       0.29887113
O        2.23648886       0.74104142      -0.81122373
C       -1.81998140      -0.48841124       0.19713090
C       -1.40488444       0.94204726      -0.10049149
H        0.79009573       0.19284314      -1.73214063
H        0.59340163      -0.18063700       1.77098285
H        1.04656618      -1.48389468       0.69671369
H        2.85203443       0.38071012       1.05539422
H       -2.00451003      -0.83145385       1.21665609
H       -2.38013282      -1.05073093      -0.54560210
H       -0.80160946       0.52541030      -1.69411036
H       -1.44796816       1.71426205       0.65771453
15
Frame=1 idx=007147 GeodesicLength=0.11443446836481477 rxn_smarts="[O:1]([C:2]1([C:3]([C:4](=[O:5])[H:11])([H:9])[H:10])[C:6]([H:12])([H:13])[C:7]1([H:14])[H:15])[H:8]>>[C:2]1([C:3]([C:4](=[O:5])[H:11])([H:9])[H:10])=[C:7]([H:15])[C:6]1([H:12])[H:13].[O:1]([H:8])[H:14]"
O       -0.07755638      -0.26586131      -1.67423381
C       -0.42636024      -0.10631506      -0.07341795
C        0.80267222      -0.42758566       0.71669656
C        2.04242581       0.31375036       0.30714471
O        2.24299298       0.74097208      -0.80487678
C       -1.82597275      -0.48171005       0.21327614
C       -1.39498824       0.94103211      -0.09602782
H        0.80294020       0.16975583      -1.75053569
H        0.60030378      -0.23139594       1.77230226
H        1.05599503      -1.49566137       0.65310659
H        2.81787937       0.44164132       1.08423298
H       -2.01385924      -0.81414454       1.23535785
H       -2.39728955      -1.04036836      -0.52349800
H       -0.79871702       0.53389479      -1.71301242
H       -1.43046598       1.72199579       0.65348538
15
Frame=2 idx=007147 GeodesicLength=0.2288155631940144 rxn_smarts="[O:1]([C:2]1([C:3]([C:4](=[O:5])[H:11])([H:9])[H:10])[C:6]([H:12])([H:13])[C:7]1([H:14])[H:15])[H:8]>>[C:2]1([C:3]([C:4](=[O:5])[H:11])([H:9])[H:10])=[C:7]([H:15])[C:6]1([H:12])[H:13].[O:1]([H:8])[H:14]"
O       -0.06840151      -0.27712194      -1.69457046
C       -0.42907361      -0.11659601      -0.06752213
C        0.80564641      -0.44260971       0.71004276
C        2.03433063       0.32470050       0.31531412
O        2.24998845       0.74042429      -0.79793343
C       -1.83163508      -0.47520057       0.22988725
C       -1.38527585       0.93958763      -0.09150443
H        0.81622107       0.14744161      -1.76876461
H        0.60803943      -0.28153834       1.77243777
H        1.06477394      -1.50629810       0.61031725
H        2.78034232       0.50170368       1.11175817
H       -2.02245099      -0.79676858       1.25455937
H       -2.41380385      -1.03032373      -0.50085267
H       -0.79544631       0.54326907      -1.73217666
H       -1.41325506       1.72933019       0.64900769
15
Frame=3 idx=007147 GeodesicLength=0.343160829410838 rxn_smarts="[O:1]([C:2]1([C:3]([C:4](=[O:5])[H:11])([H:9])[H:10])[C:6]([H:12])([H:13])[C:7]1([H:14])[H:15])[H:8]>>[C:2]1([C:3]([C:4](=[O:5])[H:11])([H:9])[H:10])=[C:7]([H:15])[C:6]1([H:12])[H:13].[O:1]([H:8])[H:14]"
O       -0.05849962      -0.28795797      -1.71533224
C       -0.43182283      -0.12696142      -0.06125471
C        0.80865087      -0.45760537       0.70340954
C        2.02621264       0.33448306       0.32345045
O        2.25739174       0.73959660      -0.79029976
C       -1.83697985      -0.46886039       0.24700826
C       -1.37573843       0.93771044      -0.08696642
H        0.82998759       0.12589204      -1.78685911
H        0.61655340      -0.33108717       1.77145152
H        1.07289794      -1.51589499       0.56832050
H        2.73942467       0.56071311       1.13778282
H       -2.03029035      -0.77925439       1.27431661
H       -2.42971272      -1.02061460      -0.47758054
H       -0.79175269       0.55354185      -1.75162426
H       -1.39632235       1.73629919       0.64417734
15
Frame=4 idx=007147 GeodesicLength=0.4575265804167118 rxn_smarts="[O:1]([C:2]1([C:3]([C:4](=[O:5])[H:11])([H:9])[H:10])[C:6]([H:12])([H:13])[C:7]1([H:14])[H:15])[H:8]>>[C:2]1([C:3]([C:4](=[O:5])[H:11])([H:9])[H:10])=[C:7]([H:15])[C:6]1([H:12])[H:13].[O:1]([H:8])[H:14]"
O       -0.04779578      -0.29839802      -1.73653838
C       -0.43461359      -0.13742479      -0.05459620
C        0.81167532      -0.47255848       0.69680895
C        2.01808413       0.34323035       0.33165312
O        2.26514630       0.73863625      -0.78190532
C       -1.84201714      -0.46267514       0.26468047
C       -1.36639104       0.93539593      -0.08245532
H        0.84429618       0.10510173      -1.80484573
H        0.62578948      -0.38004181       1.76940443
H        1.08039003      -1.52449116       0.52710472
H        2.69515308       0.61837174       1.16209807
H       -2.03737409      -0.76154616       1.29468074
H       -2.44504443      -1.01127048      -0.45359867
H       -0.78759926       0.56473984      -1.77139119
H       -1.37969920       1.74293019       0.63890031
15
Frame=5 idx=007147 GeodesicLength=0.5719278524260025 rxn_smarts="[O:1]([C:2]1([C:3]([C:4](=[O:5])[H:11])([H:9])[H:10])[C:6]([H:12])([H:13])[C:7]1([H:14])[H:15])[H:8]>>[C:2]1([C:3]([C:4](=[O:5])[H:11])([H:9])[H:10])=[C:7]([H:15])[C:6]1([H:12])[H:13].[O:1]([H:8])[H:14]"
O       -0.03619272      -0.30845520      -1.75819607
C       -0.43751083      -0.14800609      -0.04753803
C        0.81468748      -0.48742208       0.69023019
C        2.00991003       0.35115302       0.33999567
O        2.27313576       0.73776339      -0.77266397
C       -1.84679511      -0.45665516       0.28296867
C       -1.35732068       0.93259960      -0.07807749
H        0.85921506       0.08510722      -1.82272388
H        0.63566744      -0.42828654       1.76633346
H        1.08728884      -1.53210265       0.48660653
H        2.64789118       0.67411982       1.18459500
H       -2.04372077      -0.74354982       1.31574259
H       -2.45985212      -1.00241374      -0.42879100
H       -0.78292605       0.57689512      -1.79148007
H       -1.36347751       1.74925312       0.63299841
15
Frame=6 idx=007147 GeodesicLength=0.6864367903363243 rxn_smarts="[O:1]([C:2]1([C:3]([C:4](=[O:5])[H:11])([H:9])[H:10])[C:6]([H:12])([H:13])[C:7]1([H:14])[H:15])[H:8]>>[C:2]1([C:3]([C:4](=[O:5])[H:11])([H:9])[H:10])=[C:7]([H:15])[C:6]1([H:12])[H:13].[O:1]([H:8])[H:14]"
O       -0.02367105      -0.31813975      -1.78032987
C       -0.44050028      -0.15870662      -0.04004860
C        0.81767586      -0.50217668       0.68370645
C        2.00167079       0.35835397       0.34858640
O        2.28138238       0.73695440      -0.76254686
C       -1.85131275      -0.45078464       0.30188809
C       -1.34853216       0.92932422      -0.07382899
H        0.87478325       0.06591193      -1.84051866
H        0.64614680      -0.47585817       1.76232026
H        1.09360986      -1.53873242       0.44684883
H        2.59766673       0.72781273       1.20505345
H       -2.04932801      -0.72524812       1.33750144
H       -2.47414973      -0.99402933      -0.40310985
H       -0.77773922       0.59005658      -1.81195423
H       -1.34770247       1.75526189       0.62643213
15
Frame=7 idx=007147 GeodesicLength=0.8010339327362324 rxn_smarts="[O:1]([C:2]1([C:3]([C:4](=[O:5])[H:11])([H:9])[H:10])[C:6]([H:12])([H:13])[C:7]1([H:14])[H:15])[H:8]>>[C:2]1([C:3]([C:4](=[O:5])[H:11])([H:9])[H:10])=[C:7]([H:15])[C:6]1([H:12])[H:13].[O:1]([H:8])[H:14]"
O       -0.01016620      -0.32745755      -1.80295333
C       -0.44363732      -0.16953650      -0.03212226
C        0.82059695      -0.51675176       0.67724633
C        1.99329374       0.36500785       0.35746948
O        2.28979389       0.73638496      -0.75150677
C       -1.85561302      -0.44507563       0.32147324
C       -1.34012257       0.92553001      -0.06978724
H        0.89105261       0.04754599      -1.85823868
H        0.65714697      -0.52266351       1.75741495
H        1.09937441      -1.54434282       0.40784401
H        2.54499209       0.77893954       1.22341822
H       -2.05421304      -0.70658316       1.36000144
H       -2.48798950      -0.98620363      -0.37646144
H       -0.77200969       0.60425226      -1.83284914
H       -1.33249933       1.76095393       0.61905119
15
Frame=8 idx=007147 GeodesicLength=0.9157962286406817 rxn_smarts="[O:1]([C:2]1([C:3]([C:4](=[O:5])[H:11])([H:9])[H:10])[C:6]([H:12])([H:13])[C:7]1([H:14])[H:15])[H:8]>>[C:2]1([C:3]([C:4](=[O:5])[H:11])([H:9])[H:10])=[C:7]([H:15])[C:6]1([H:12])[H:13].[O:1]([H:8])[H:14]"
O        0.00436099      -0.33643394      -1.82609987
C       -0.44696411      -0.18049145      -0.02373346
C        0.82341307      -0.53107311       0.67086656
C        1.98469535       0.37128620       0.36668233
O        2.29829309       0.73619147      -0.73952266
C       -1.85973505      -0.43953723       0.34175057
C       -1.33218638       0.92118155      -0.06601864
H        0.90805641       0.03003942      -1.87591197
H        0.66860742      -0.56859930       1.75167702
H        1.10459947      -1.54888629       0.36960205
H        2.49045480       0.82701143       1.23973696
H       -2.05840501      -0.68750264       1.38326434
H       -2.50139958      -0.97901614      -0.34876761
H       -0.76577025       0.61950732      -1.85424114
H       -1.31802019       1.76632271       0.61071553
15
Frame=9 idx=007147 GeodesicLength=1.0306474798007177 rxn_smarts="[O:1]([C:2]1([C:3]([C:4](=[O:5])[H:11])([H:9])[H:10])[C:6]([H:12])([H:13])[C:7]1([H:14])[H:15])[H:8]>>[C:2]1([C:3]([C:4](=[O:5])[H:11])([H:9])[H:10])=[C:7]([H:15])[C:6]1([H:12])[H:13].[O:1]([H:8])[H:14]"
O        0.02001412      -0.34507771      -1.84980757
C       -0.45062376      -0.19161786      -0.01490979
C        0.82604422      -0.54505161       0.66451116
C        1.97569968       0.37743798       0.37617734
O        2.30658602       0.73676908      -0.72653902
C       -1.86378201      -0.43419766       0.36281490
C       -1.32493286       0.91615184      -0.06275596
H        0.92584582       0.01343207      -1.89355636
H        0.68041444      -0.61345747       1.74509810
H        1.10930403      -1.55232338       0.33202482
H        2.43530793       0.87122721       1.25444660
H       -2.06193456      -0.66781756       1.40740874
H       -2.51448848      -0.97270214      -0.31980376
H       -0.75896142       0.63587112      -1.87613823
H       -1.30449318       1.77135610       0.60102905
15
Frame=10 idx=007147 GeodesicLength=1.1456593110351538 rxn_smarts="[O:1]([C:2]1([C:3]([C:4](=[O:5])[H:11])([H:9])[H:10])[C:6]([H:12])([H:13])[C:7]1([H:14])[H:15])[H:8]>>[C:2]1([C:3]([C:4](=[O:5])[H:11])([H:9])[H:10])=[C:7]([H:15])[C:6]1([H:12])[H:13].[O:1]([H:8])[H:14]"
O        0.03677987      -0.35340211      -1.87411107
C       -0.45456209      -0.20292548      -0.00560998
C        0.82850229      -0.55874394       0.65819828
C        1.96634985       0.38336204       0.38600167
O        2.31480894       0.73786254      -0.71260982
C       -1.86772377      -0.42900588       0.38466150
C       -1.31828745       0.91047511      -0.05989241
H        0.94446100      -0.00231958      -1.91121546
H        0.69259564      -0.65744777       1.73772764
H        1.11346692      -1.55469989       0.29513565
H        2.37912946       0.91206077       1.26739468
H       -2.06478333      -0.64754277       1.43238682
H       -2.52726956      -0.96711268      -0.28956109
H       -0.75161103       0.65342676      -1.89861238
H       -1.29185675       1.77601289       0.59010598
15
Frame=11 idx=007147 GeodesicLength=1.2607644103773528 rxn_smarts="[O:1]([C:2]1([C:3]([C:4](=[O:5])[H:11])([H:9])[H:10])[C:6]([H:12])([H:13])[C:7]1([H:14])[H:15])[H:8]>>[C:2]1([C:3]([C:4](=[O:5])[H:11])([H:9])[H:10])=[C:7]([H:15])[C:6]1([H:12])[H:13].[O:1]([H:8])[H:14]"
O        0.05471093      -0.36141582      -1.89904590
C       -0.45883467      -0.21446325       0.00416562
C        0.83075107      -0.57217499       0.65189654
C        1.95658452       0.38906344       0.39612393
O        2.32286731       0.73953181      -0.69772976
C       -1.87159868      -0.42394444       0.40734301
C       -1.31231222       0.90409837      -0.05749383
H        0.96395168      -0.01723429      -1.92891096
H        0.70509517      -0.70062427       1.72955240
H        1.11708017      -1.55605872       0.25886198
H        2.32228977       0.94955214       1.27876923
H       -2.06694328      -0.62657426       1.45824690
H       -2.53983115      -0.96227540      -0.25790567
H       -0.74365135       0.67225672      -1.92167610
H       -1.28015925       1.78026296       0.57780261
15
Frame=12 idx=007147 GeodesicLength=1.3759258620590646 rxn_smarts="[O:1]([C:2]1([C:3]([C:4](=[O:5])[H:11])([H:9])[H:10])[C:6]([H:12])([H:13])[C:7]1([H:14])[H:15])[H:8]>>[C:2]1([C:3]([C:4](=[O:5])[H:11])([H:9])[H:10])=[C:7]([H:15])[C:6]1([H:12])[H:13].[O:1]([H:8])[H:14]"
O        0.07385213      -0.36912807      -1.92466164
C       -0.46348879      -0.22627009       0.01443278
C        0.83275832      -0.58535511       0.64557469
C        1.94634354       0.39456591       0.40651773
O        2.33067716       0.74182633      -0.68190928
C       -1.87543585      -0.41899266       0.43091090
C       -1.30707362       0.89695900      -0.05562878
H        0.98436194      -0.03132937      -1.94667723
H        0.71786860      -0.74303304       1.72057097
H        1.12012610      -1.55643011       0.22313402
H        2.26516824       0.98369964       1.28879921
H       -2.06840515      -0.60479409       1.48502489
H       -2.55223357      -0.95822407      -0.22469740
H       -0.73503807       0.69244398      -1.94535348
H       -1.26948098       1.78406174       0.56396261
15
Frame=13 idx=007147 GeodesicLength=1.49112579142276 rxn_smarts="[O:1]([C:2]1([C:3]([C:4](=[O:5])[H:11])([H:9])[H:10])[C:6]([H:12])([H:13])[C:7]1([H:14])[H:15])[H:8]>>[C:2]1([C:3]([C:4](=[O:5])[H:11])([H:9])[H:10])=[C:7]([H:15])[C:6]1([H:12])[H:13].[O:1]([H:8])[H:14]"
O        0.09426324      -0.37654104      -1.95101425
C       -0.46856249      -0.23840410       0.02519856
C        0.83449442      -0.59832287       0.63918958
C        1.93557669       0.39984823       0.41715018
O        2.33815597       0.74476425      -0.66515796
C       -1.87925134      -0.41411638       0.45543483
C       -1.30262345       0.88898133      -0.05436092
H        1.00575605      -0.04462830      -1.96455199
H        0.73088977      -0.78475408       1.71075789
H        1.12257697      -1.55585451       0.18786940
H        2.20797008       1.01460685       1.29771907
H       -2.06912783      -0.58206273       1.51276626
H       -2.56453233      -0.95496462      -0.18975807
H       -0.72571033       0.71410742      -1.96966255
H       -1.25987541       1.78734054       0.54841998
15
Frame=14 idx=007147 GeodesicLength=1.6063337580287862 rxn_smarts="[O:1]([C:2]1([C:3]([C:4](=[O:5])[H:11])([H:9])[H:10])[C:6]([H:12])([H:13])[C:7]1([H:14])[H:15])[H:8]>>[C:2]1([C:3]([C:4](=[O:5])[H:11])([H:9])[H:10])=[C:7]([H:15])[C:6]1([H:12])[H:13].[O:1]([H:8])[H:14]"
O        0.11600425      -0.38365939      -1.97815500
C       -0.47410222      -0.25090884       0.03648532
C        0.83592636      -0.61108702       0.63270792
C        1.92421564       0.40493938       0.42800031
O        2.34523773       0.74835183      -0.64748724
C       -1.88306266      -0.40928530       0.48097679
C       -1.29903850       0.88008019      -0.05376422
H        1.02818935      -0.05714354      -1.98256455
H        0.74413227      -0.82583119       1.70008984
H        1.12440638      -1.55434302       0.15299522
H        2.15099393       1.04226954       1.30575463
H       -2.06907816      -0.55824126       1.54150173
H       -2.57677169      -0.95253021      -0.15291526
H       -0.71560738       0.73736332      -1.99462261
H       -1.25144530       1.79002550       0.53099712
15
Frame=15 idx=007147 GeodesicLength=1.7215095732276615 rxn_smarts="[O:1]([C:2]1([C:3]([C:4](=[O:5])[H:11])([H:9])[H:10])[C:6]([H:12])([H:13])[C:7]1([H:14])[H:15])[H:8]>>[C:2]1([C:3]([C:4](=[O:5])[H:11])([H:9])[H:10])=[C:7]([H:15])[C:6]1([H:12])[H:13].[O:1]([H:8])[H:14]"
O        0.13915184      -0.39046897      -2.00613769
C       -0.48014857      -0.26384189       0.04831424
C        0.83702217      -0.62367774       0.62608720
C        1.91219722       0.40983550       0.43904699
O        2.35186802       0.75255734      -0.62890267
C       -1.88687489      -0.40446023       0.50761003
C       -1.29638779       0.87015405      -0.05390647
H        1.05173675      -0.06888484      -2.00073877
H        0.75758446      -0.86633215       1.68852843
H        1.12557543      -1.55191557       0.11843323
H        2.09438868       1.06676365       1.31309252
H       -2.06819625      -0.53317163       1.57126274
H       -2.58898964      -0.95092535      -0.11396619
H       -0.70464647       0.76235436      -2.02023401
H       -1.24428096       1.79201348       0.51151042
15
Frame=16 idx=007147 GeodesicLength=1.8366290769976124 rxn_smarts="[O:1]([C:2]1([C:3]([C:4](=[O:5])[H:11])([H:9])[H:10])[C:6]([H:12])([H:13])[C:7]1([H:14])[H:15])[H:8]>>[C:2]1([C:3]([C:4](=[O:5])[H:11])([H:9])[H:10])=[C:7]([H:15])[C:6]1([H:12])[H:13].[O:1]([H:8])[H:14]"
O        0.16380568      -0.39695075      -2.03502213
C       -0.48674178      -0.27727646       0.06070729
C        0.83775049      -0.63613834       0.61927389
C        1.89945702       0.41451523       0.45027601
O        2.35797943       0.75736177      -0.60939144
C       -1.89068079      -0.39958683       0.53542964
C       -1.29474121       0.85907490      -0.05487075
H        1.07648868      -0.07984840      -2.01909393
H        0.77124581      -0.90635170       1.67601007
H        1.12604143      -1.54859315       0.08408401
H        2.03820503       1.08816397       1.31991705
H       -2.06639141      -0.50664003       1.60209067
H       -2.60121749      -0.95014802      -0.07265159
H       -0.69272610       0.78924297      -2.04649397
H       -1.23847478       1.79317484       0.48973517
