14
Frame=0 idx=004409 GeodesicLength=0.0 rxn_smarts="[C:1]([C@@:2]([C:3]([O:4][H:13])([H:11])[H:12])([C:5]#[C:6][H:14])[H:10])([H:7])([H:8])[H:9]>>[C:1]([C@@:2]1([H:10])[C:3]([H:11])([H:12])/[C:5]1=[C:6](\[O:4][H:13])[H:14])([H:7])([H:8])[H:9]"
C       -0.62311290      -1.75518108       0.11645567
C       -0.50127857      -0.39714269      -0.55890076
C       -0.83623340       0.74083120       0.25786094
O        0.80829977       1.86105468       0.37126999
C        0.99825919      -0.13190882      -0.94933230
C        1.57299328       0.92348624      -0.43471897
H       -0.04304817      -1.77659075       1.04158075
H       -0.21599411      -2.51853288      -0.54649882
H       -1.66235995      -2.00062092       0.34921864
H       -1.05452409      -0.37655979      -1.49891836
H       -1.35662613       1.59083036      -0.16093272
H       -0.88993813       0.64464564       1.33694267
H        1.20855359       1.94203159       1.24820470
H        2.59500963       1.25365726      -0.57223144
14
Frame=1 idx=004409 GeodesicLength=0.10239195893274801 rxn_smarts="[C:1]([C@@:2]([C:3]([O:4][H:13])([H:11])[H:12])([C:5]#[C:6][H:14])[H:10])([H:7])([H:8])[H:9]>>[C:1]([C@@:2]1([H:10])[C:3]([H:11])([H:12])/[C:5]1=[C:6](\[O:4][H:13])[H:14])([H:7])([H:8])[H:9]"
C       -0.63629897      -1.76598386       0.10824268
C       -0.49879345      -0.40481402      -0.55648487
C       -0.81874115       0.73561331       0.27032547
O        0.79798104       1.89784987       0.35550841
C        0.99875493      -0.13008196      -0.90492485
C        1.58960312       0.93665196      -0.44556784
H       -0.06761827      -1.80039721       1.03997691
H       -0.22979966      -2.52953494      -0.55498668
H       -1.68008311      -2.00319610       0.32886137
H       -1.04143820      -0.36984384      -1.50198604
H       -1.38116856       1.56395545      -0.13827251
H       -0.86640488       0.62874091       1.34907503
H        1.21427533       1.99810790       1.22226192
H        2.61973182       1.24293251      -0.57202901
14
Frame=2 idx=004409 GeodesicLength=0.2041856480091973 rxn_smarts="[C:1]([C@@:2]([C:3]([O:4][H:13])([H:11])[H:12])([C:5]#[C:6][H:14])[H:10])([H:7])([H:8])[H:9]>>[C:1]([C@@:2]1([H:10])[C:3]([H:11])([H:12])/[C:5]1=[C:6](\[O:4][H:13])[H:14])([H:7])([H:8])[H:9]"
C       -0.64894843      -1.77593556       0.10017886
C       -0.49607461      -0.41192882      -0.55402792
C       -0.80193142       0.73086892       0.28260316
O        0.78668674       1.93323810       0.33990927
C        0.99893019      -0.12725244      -0.85945648
C        1.60560973       0.94925141      -0.45829384
H       -0.09233186      -1.82269270       1.03860068
H       -0.24224429      -2.53959496      -0.56292193
H       -1.69709231      -2.00515390       0.30815717
H       -1.02740223      -0.36300923      -1.50506687
H       -1.40473909       1.53661265      -0.11443706
H       -0.84370015       0.61324430       1.36089443
H        1.21973845       2.05104718       1.19550280
H        2.64349928       1.23130505      -0.57164227
14
Frame=3 idx=004409 GeodesicLength=0.305443315708275 rxn_smarts="[C:1]([C@@:2]([C:3]([O:4][H:13])([H:11])[H:12])([C:5]#[C:6][H:14])[H:10])([H:7])([H:8])[H:9]>>[C:1]([C@@:2]1([H:10])[C:3]([H:11])([H:12])/[C:5]1=[C:6](\[O:4][H:13])[H:14])([H:7])([H:8])[H:9]"
C       -0.66090797      -1.78499329       0.09226095
C       -0.49314558      -0.41841443      -0.55155203
C       -0.78597346       0.72669242       0.29465457
O        0.77458222       1.96706268       0.32472252
C        0.99854706      -0.12319487      -0.81335875
C        1.62126559       0.96038047      -0.47196848
H       -0.11689314      -1.84333659       1.03737069
H       -0.25317439      -2.54865506      -0.57032504
H       -1.71318153      -2.00655946       0.28720059
H       -1.01262395      -0.35606715      -1.50808689
H       -1.42725523       1.50905023      -0.08979709
H       -0.82225750       0.59824068       1.37235037
H        1.22493130       2.10094571       1.16825782
H        2.66608659       1.21884865      -0.57172923
14
Frame=4 idx=004409 GeodesicLength=0.40621033013142804 rxn_smarts="[C:1]([C@@:2]([C:3]([O:4][H:13])([H:11])[H:12])([C:5]#[C:6][H:14])[H:10])([H:7])([H:8])[H:9]>>[C:1]([C@@:2]1([H:10])[C:3]([H:11])([H:12])/[C:5]1=[C:6](\[O:4][H:13])[H:14])([H:7])([H:8])[H:9]"
C       -0.67199935      -1.79312227       0.08448245
C       -0.49008312      -0.42419677      -0.54910145
C       -0.77104137       0.72317291       0.30643904
O        0.76179115       1.99928099       0.31011817
C        0.99731731      -0.11769551      -0.76725739
C        1.63679928       0.96927873      -0.48561568
H       -0.14087914      -1.86220412       1.03615580
H       -0.26247955      -2.55666310      -0.57726144
H       -1.72810624      -2.00750381       0.26618884
H       -0.99745867      -0.34902879      -1.51095866
H       -1.44874070       1.48150155      -0.06470542
H       -0.80242702       0.58380021       1.38339787
H        1.22979261       2.14798886       1.14077009
H        2.68751481       1.20539110      -0.57265221
14
Frame=5 idx=004409 GeodesicLength=0.5066118347386119 rxn_smarts="[C:1]([C@@:2]([C:3]([O:4][H:13])([H:11])[H:12])([C:5]#[C:6][H:14])[H:10])([H:7])([H:8])[H:9]>>[C:1]([C@@:2]1([H:10])[C:3]([H:11])([H:12])/[C:5]1=[C:6](\[O:4][H:13])[H:14])([H:7])([H:8])[H:9]"
C       -0.68203145      -1.80030567       0.07682812
C       -0.48701368      -0.42920138      -0.54673539
C       -0.75728238       0.72038686       0.31793022
O        0.74835117       2.03000403       0.29612604
C        0.99492665      -0.11053685      -0.72189675
C        1.65235401       0.97549637      -0.49853721
H       -0.16376633      -1.87921104       1.03477990
H       -0.27010763      -2.56357513      -0.58384986
H       -1.74159971      -2.00811901       0.24540037
H       -0.98239158      -0.34189513      -1.51358223
H       -1.46932739       1.45414395      -0.03941146
H       -0.78438406       0.56996986       1.39400706
H        1.23424868       2.19245358       1.11311714
H        2.70802369       1.19038956      -0.57417595
14
Frame=6 idx=004409 GeodesicLength=0.6066362458983638 rxn_smarts="[C:1]([C@@:2]([C:3]([O:4][H:13])([H:11])[H:12])([C:5]#[C:6][H:14])[H:10])([H:7])([H:8])[H:9]>>[C:1]([C@@:2]1([H:10])[C:3]([H:11])([H:12])/[C:5]1=[C:6](\[O:4][H:13])[H:14])([H:7])([H:8])[H:9]"
C       -0.69085500      -1.80654627       0.06929083
C       -0.48406280      -0.43338066      -0.54451503
C       -0.74478552       0.71838268       0.32911196
O        0.73426065       2.05939948       0.28273595
C        0.99115416      -0.10162637      -0.67798243
C        1.66798868       0.97893530      -0.51035723
H       -0.18507439      -1.89434200       1.03309714
H       -0.27607347      -2.56937871      -0.59021777
H       -1.75346776      -2.00850787       0.22513176
H       -0.96790017      -0.33465913      -1.51588646
H       -1.48917080       1.42709383      -0.01409552
H       -0.76816832       0.55676670       1.40416161
H        1.23828564       2.23456559       1.08526863
H        2.72786910       1.17329743      -0.57574344
14
Frame=7 idx=004409 GeodesicLength=0.7064012601223154 rxn_smarts="[C:1]([C@@:2]([C:3]([O:4][H:13])([H:11])[H:12])([C:5]#[C:6][H:14])[H:10])([H:7])([H:8])[H:9]>>[C:1]([C@@:2]1([H:10])[C:3]([H:11])([H:12])/[C:5]1=[C:6](\[O:4][H:13])[H:14])([H:7])([H:8])[H:9]"
C       -0.69839250      -1.81188440       0.06184063
C       -0.48133329      -0.43670399      -0.54248167
C       -0.73356578       0.71717433       0.34000793
O        0.71945715       2.08771678       0.26981959
C        0.98587249      -0.09091544      -0.63604571
C        1.68376809       0.97961566      -0.52085700
H       -0.20444138      -1.90768383       1.03097087
H       -0.28047542      -2.57408855      -0.59652141
H       -1.76361228      -2.00878073       0.20560448
H       -0.95437672      -0.32727105      -1.51781733
H       -1.50843862       1.40037266       0.01121803
H       -0.75362250       0.54416778       1.41387875
H        1.24186909       2.27468939       1.05705030
H        2.74729165       1.15359139      -0.57666746
14
Frame=8 idx=004409 GeodesicLength=0.8060353263625192 rxn_smarts="[C:1]([C@@:2]([C:3]([O:4][H:13])([H:11])[H:12])([C:5]#[C:6][H:14])[H:10])([H:7])([H:8])[H:9]>>[C:1]([C@@:2]1([H:10])[C:3]([H:11])([H:12])/[C:5]1=[C:6](\[O:4][H:13])[H:14])([H:7])([H:8])[H:9]"
C       -0.70463587      -1.81638675       0.05444298
C       -0.47889094      -0.43916271      -0.54065940
C       -0.72358946       0.71675366       0.35066237
O        0.70385937       2.11521675       0.25724260
C        0.97906898      -0.07842881      -0.59641337
C        1.69975608       0.97763604      -0.52991006
H       -0.22165448      -1.91939399       1.02831570
H       -0.28345437      -2.57775161      -0.60290594
H       -1.77204019      -2.00902833       0.18695130
H       -0.94208781      -0.31966055      -1.51935882
H       -1.52727020       1.37394784       0.03657344
H       -0.74050954       0.53212926       1.42319815
H        1.24498695       2.31319352       1.02824766
H        2.76646148       1.13093569      -0.57638659
14
Frame=9 idx=004409 GeodesicLength=0.9052341143672766 rxn_smarts="[C:1]([C@@:2]([C:3]([O:4][H:13])([H:11])[H:12])([C:5]#[C:6][H:14])[H:10])([H:7])([H:8])[H:9]>>[C:1]([C@@:2]1([H:10])[C:3]([H:11])([H:12])/[C:5]1=[C:6](\[O:4][H:13])[H:14])([H:7])([H:8])[H:9]"
C       -0.70962487      -1.82006389       0.04708900
C       -0.47674441      -0.44079401      -0.53905269
C       -0.71480019       0.71706364       0.36111983
O        0.68743263       2.14199408       0.24501031
C        0.97085466      -0.06437095      -0.55924383
C        1.71594194       0.97326233      -0.53751302
H       -0.23666662      -1.92955701       1.02512327
H       -0.28514071      -2.58037968      -0.60946405
H       -1.77883387      -2.00920077       0.16925725
H       -0.93112943      -0.31181891      -1.52051978
H       -1.54570103       1.34775777       0.06196401
H       -0.72867528       0.52059064       1.43215821
H        1.24768050       2.35013708       0.99867277
H        2.78540668       1.10537968      -0.57460128
14
Frame=10 idx=004409 GeodesicLength=1.004394237802818 rxn_smarts="[C:1]([C@@:2]([C:3]([O:4][H:13])([H:11])[H:12])([C:5]#[C:6][H:14])[H:10])([H:7])([H:8])[H:9]>>[C:1]([C@@:2]1([H:10])[C:3]([H:11])([H:12])/[C:5]1=[C:6](\[O:4][H:13])[H:14])([H:7])([H:8])[H:9]"
C       -0.71339057      -1.82301304       0.03971964
C       -0.47494037      -0.44157904      -0.53766889
C       -0.70713176       0.71809931       0.37144187
O        0.67003767       2.16835681       0.23293860
C        0.96125633      -0.04869604      -0.52463156
C        1.73240431       0.96650889      -0.54357477
H       -0.24937009      -1.93839010       1.02131235
H       -0.28567802      -2.58203437      -0.61634032
H       -1.78404405      -2.00942625       0.15254825
H       -0.92166011      -0.30362676      -1.52129916
H       -1.56383765       1.32173437       0.08754823
H       -0.71778151       0.50950528       1.44080712
H        1.24991830       2.38597309       0.96804382
H        2.80421753       1.07658785      -0.57084518
14
Frame=11 idx=004409 GeodesicLength=1.1034456817451532 rxn_smarts="[C:1]([C@@:2]([C:3]([O:4][H:13])([H:11])[H:12])([C:5]#[C:6][H:14])[H:10])([H:7])([H:8])[H:9]>>[C:1]([C@@:2]1([H:10])[C:3]([H:11])([H:12])/[C:5]1=[C:6](\[O:4][H:13])[H:14])([H:7])([H:8])[H:9]"
C       -0.71597294      -1.82526025       0.03230519
C       -0.47348855      -0.44152812      -0.53651297
C       -0.70052142       0.71982245       0.38167533
O        0.65159733       2.19443963       0.22099870
C        0.95038050      -0.03149124      -0.49261206
C        1.74913764       0.95750003      -0.54805492
H       -0.25973817      -1.94599942       1.01686177
H       -0.28516417      -2.58272219      -0.62363209
H       -1.78774892      -2.00970353       0.13685103
H       -0.91373682      -0.29503091      -1.52171639
H       -1.58170114       1.29580682       0.11339566
H       -0.70761591       0.49882045       1.44918155
H        1.25172741       2.42083205       0.93611219
H        2.82284516       1.04451423      -0.56485299
14
Frame=12 idx=004409 GeodesicLength=1.2023888513276564 rxn_smarts="[C:1]([C@@:2]([C:3]([O:4][H:13])([H:11])[H:12])([C:5]#[C:6][H:14])[H:10])([H:7])([H:8])[H:9]>>[C:1]([C@@:2]1([H:10])[C:3]([H:11])([H:12])/[C:5]1=[C:6](\[O:4][H:13])[H:14])([H:7])([H:8])[H:9]"
C       -0.71740751      -1.82683258       0.02480118
C       -0.47240019      -0.44064397      -0.53558711
C       -0.69490193       0.72220028       0.39187636
O        0.63200672       2.22038674       0.20913982
C        0.93831361      -0.01281731      -0.46318748
C        1.76614160       0.94631319      -0.55090147
H       -0.26773986      -1.95249333       1.01172638
H       -0.28369323      -2.58244738      -0.63145300
H       -1.79001181      -2.01003536       0.12217283
H       -0.90741118      -0.28596565      -1.52178081
H       -1.59930111       1.26990166       0.13962194
H       -0.69792910       0.48849085       1.45732011
H        1.25311138       2.45487754       0.90256775
H        2.84122259       1.00906531      -0.55631651
14
Frame=13 idx=004409 GeodesicLength=1.3012580116753645 rxn_smarts="[C:1]([C@@:2]([C:3]([O:4][H:13])([H:11])[H:12])([C:5]#[C:6][H:14])[H:10])([H:7])([H:8])[H:9]>>[C:1]([C@@:2]1([H:10])[C:3]([H:11])([H:12])/[C:5]1=[C:6](\[O:4][H:13])[H:14])([H:7])([H:8])[H:9]"
C       -0.71771703      -1.82774968       0.01714473
C       -0.47170033      -0.43891024      -0.53490359
C       -0.69019688       0.72520254       0.40210854
O        0.61113563       2.24635314       0.19725438
C        0.92512206       0.00732172      -0.43639260
C        1.78341843       0.93295286      -0.55199671
H       -0.27329546      -1.95797382       1.00582312
H       -0.28136051      -2.58119007      -0.63995399
H       -1.79087684      -2.01043533       0.10853370
H       -0.90277259      -0.27634010      -1.52149499
H       -1.61664116       1.24392405       0.16641073
H       -0.68840590       0.47846816       1.46526374
H        1.25404162       2.48832033       0.86698445
H        2.85924894       0.97005644      -0.54478151
14
Frame=14 idx=004409 GeodesicLength=1.400033911869196 rxn_smarts="[C:1]([C@@:2]([C:3]([O:4][H:13])([H:11])[H:12])([C:5]#[C:6][H:14])[H:10])([H:7])([H:8])[H:9]>>[C:1]([C@@:2]1([H:10])[C:3]([H:11])([H:12])/[C:5]1=[C:6](\[O:4][H:13])[H:14])([H:7])([H:8])[H:9]"
C       -0.71690915      -1.82800857       0.00926950
C       -0.47140362      -0.43631049      -0.53447045
C       -0.68632980       0.72879914       0.41243892
O        0.58884749       2.27245078       0.18529135
C        0.91086631       0.02889724      -0.41224391
C        1.80093646       0.91741395      -0.55123198
H       -0.27632172      -1.96250962       0.99905803
H       -0.27823687      -2.57891295      -0.64928904
H       -1.79036238      -2.01087821       0.09594863
H       -0.89988886      -0.26607297      -1.52084927
H       -1.63368020       1.21780152       0.19393651
H       -0.67875507       0.46871368       1.47304773
H        1.25448988       2.52128949       0.82889481
H        2.87674753       0.92732699      -0.52980084
14
Frame=15 idx=004409 GeodesicLength=1.498755977985695 rxn_smarts="[C:1]([C@@:2]([C:3]([O:4][H:13])([H:11])[H:12])([C:5]#[C:6][H:14])[H:10])([H:7])([H:8])[H:9]>>[C:1]([C@@:2]1([H:10])[C:3]([H:11])([H:12])/[C:5]1=[C:6](\[O:4][H:13])[H:14])([H:7])([H:8])[H:9]"
C       -0.71497298      -1.82760385       0.00109332
C       -0.47154758      -0.43280212      -0.53431570
C       -0.68321502       0.73297008       0.42292837
O        0.56499294       2.29882174       0.17317650
C        0.89558508       0.05197122      -0.39082535
C        1.81866352       0.89961063      -0.54839224
H       -0.27665614      -1.96616094       0.99129763
H       -0.27439601      -2.57555589      -0.65964672
H       -1.78846378      -2.01137612       0.08446395
H       -0.89889477      -0.25505915      -1.51983450
H       -1.65036787       1.19144615       0.22242354
H       -0.66862413       0.45918733       1.48069377
H        1.25441133       2.55393895       0.78771940
H        2.89348539       0.88061198      -0.51078196
14
Frame=16 idx=004409 GeodesicLength=1.5974322403543406 rxn_smarts="[C:1]([C@@:2]([C:3]([O:4][H:13])([H:11])[H:12])([C:5]#[C:6][H:14])[H:10])([H:7])([H:8])[H:9]>>[C:1]([C@@:2]1([H:10])[C:3]([H:11])([H:12])/[C:5]1=[C:6](\[O:4][H:13])[H:14])([H:7])([H:8])[H:9]"
C       -0.71187320      -1.82650692      -0.00748007
C       -0.47216831      -0.42833091      -0.53447196
C       -0.68075375       0.73769771       0.43364450
O        0.53941104       2.32559035       0.16087076
C        0.87930924       0.07661218      -0.37224928
C        1.83652447       0.87942670      -0.54323592
H       -0.27408745      -1.96895819       0.98237256
H       -0.26989651      -2.57103027      -0.67124586
H       -1.78514011      -2.01191668       0.07413997
H       -0.89994330      -0.24318758      -1.51842645
H       -1.66660899       1.16478340       0.25212222
H       -0.65763147       0.44985442       1.48821544
H        1.25374045       2.58636120       0.74276258
H        2.90911790       0.82960459      -0.48701850
