16
Frame=0 idx=006614 GeodesicLength=0.0 rxn_smarts="[C:1]([C@@:2]([O:3][H:12])([C:4]([N:5]([C:6](=[O:7])[H:16])[H:15])([H:13])[H:14])[H:11])([H:8])([H:9])[H:10]>>[C:1]([C:2][C:4]([N:5]([C:6](=[O:7])[H:16])[H:15])([H:13])[H:14])([H:8])([H:9])[H:10].[O:3]([H:11])[H:12]"
C       -2.03694255      -0.87730996      -0.23207165
C       -0.58964781      -0.59351883      -0.47083644
O       -0.67680775       0.95437009      -1.34843720
C        0.13468531      -0.25606938       0.79459873
N        1.58549937      -0.13829909       0.69734685
C        2.20259062       0.92478859       0.17288925
O        1.63788681       1.90187700      -0.29562622
H       -2.10717766      -1.88451691       0.19131976
H       -2.59886343      -0.88526949      -1.16493547
H       -2.52324666      -0.17800822       0.46265721
H       -0.25150742       0.04023648      -1.69896501
H        0.09143515       1.47124599      -1.01187850
H       -0.25080727       0.66202264       1.25843472
H       -0.07029619      -1.07030871       1.49432750
H        2.15210120      -0.92874926       0.94761658
H        3.30109832       0.85750902       0.20355993
16
Frame=1 idx=006614 GeodesicLength=0.05689668315133709 rxn_smarts="[C:1]([C@@:2]([O:3][H:12])([C:4]([N:5]([C:6](=[O:7])[H:16])[H:15])([H:13])[H:14])[H:11])([H:8])([H:9])[H:10]>>[C:1]([C:2][C:4]([N:5]([C:6](=[O:7])[H:16])[H:15])([H:13])[H:14])([H:8])([H:9])[H:10].[O:3]([H:11])[H:12]"
C       -2.03749469      -0.87611416      -0.23285138
C       -0.59178691      -0.58192998      -0.47217274
O       -0.67909156       0.95192707      -1.33848982
C        0.13451303      -0.25444307       0.79554363
N        1.58558252      -0.13782156       0.69675614
C        2.20355619       0.92407762       0.17130542
O        1.63964017       1.89889905      -0.30326041
H       -2.10253353      -1.88454878       0.18812100
H       -2.60055747      -0.88387089      -1.16512637
H       -2.52557467      -0.17974120       0.46346962
H       -0.25140988       0.03209514      -1.70952319
H        0.09120648       1.47031136      -1.00772834
H       -0.25011448       0.66175481       1.26390143
H       -0.07023799      -1.07261147       1.49050036
H        2.15232140      -0.92609537       0.95339224
H        3.30198138       0.85811143       0.20616242
16
Frame=2 idx=006614 GeodesicLength=0.11378814978744947 rxn_smarts="[C:1]([C@@:2]([O:3][H:12])([C:4]([N:5]([C:6](=[O:7])[H:16])[H:15])([H:13])[H:14])[H:11])([H:8])([H:9])[H:10]>>[C:1]([C:2][C:4]([N:5]([C:6](=[O:7])[H:16])[H:15])([H:13])[H:14])([H:8])([H:9])[H:10].[O:3]([H:11])[H:12]"
C       -2.03799990      -0.87490391      -0.23366245
C       -0.59389623      -0.57046541      -0.47346107
O       -0.68132445       0.94962248      -1.32864696
C        0.13435703      -0.25286958       0.79646306
N        1.58567912      -0.13737347       0.69613281
C        2.20450388       0.92335284       0.16968316
O        1.64136702       1.89587015      -0.31091584
H       -2.09794021      -1.88452192       0.18490794
H       -2.60217441      -0.88243455      -1.16536862
H       -2.52784239      -0.18141881       0.46420169
H       -0.25149038       0.02378749      -1.71978845
H        0.09092725       1.46947261      -1.00348980
H       -0.24941176       0.66141722       1.26932325
H       -0.07015497      -1.07491861       1.48665664
H        2.15256738      -0.92337786       0.95922392
H        3.30283301       0.85876133       0.20874071
16
Frame=3 idx=006614 GeodesicLength=0.1706876775822735 rxn_smarts="[C:1]([C@@:2]([O:3][H:12])([C:4]([N:5]([C:6](=[O:7])[H:16])[H:15])([H:13])[H:14])[H:11])([H:8])([H:9])[H:10]>>[C:1]([C:2][C:4]([N:5]([C:6](=[O:7])[H:16])[H:15])([H:13])[H:14])([H:8])([H:9])[H:10].[O:3]([H:11])[H:12]"
C       -2.03845507      -0.87367606      -0.23450585
C       -0.59597013      -0.55912276      -0.47470033
O       -0.68350374       0.94745466      -1.31888625
C        0.13421049      -0.25134653       0.79735786
N        1.58578256      -0.13694671       0.69548775
C        2.20542529       0.92262714       0.16805318
O        1.64305796       1.89279893      -0.31856732
H       -2.09339924      -1.88442562       0.18168663
H       -2.60370247      -0.88096349      -1.16566032
H       -2.53005267      -0.18303991       0.46484471
H       -0.25171352       0.01528966      -1.72976398
H        0.09061130       1.46872071      -0.99915539
H       -0.24871416       0.66100421       1.27469859
H       -0.07005721      -1.07722359       1.48279438
H        2.15283049      -0.92059696       0.96508370
H        3.30365012       0.85944631       0.21123263
16
Frame=4 idx=006614 GeodesicLength=0.22756151434907487 rxn_smarts="[C:1]([C@@:2]([O:3][H:12])([C:4]([N:5]([C:6](=[O:7])[H:16])[H:15])([H:13])[H:14])[H:11])([H:8])([H:9])[H:10]>>[C:1]([C:2][C:4]([N:5]([C:6](=[O:7])[H:16])[H:15])([H:13])[H:14])([H:8])([H:9])[H:10].[O:3]([H:11])[H:12]"
C       -2.03883851      -0.87244203      -0.23540731
C       -0.59798207      -0.54789142      -0.47587720
O       -0.68561213       0.94542800      -1.30919669
C        0.13405531      -0.24985119       0.79826822
N        1.58587608      -0.13649195       0.69491021
C        2.20629634       0.92197445       0.16653360
O        1.64467997       1.88973401      -0.32610683
H       -2.08888716      -1.88426923       0.17844561
H       -2.60509516      -0.87949501      -1.16604648
H       -2.53221557      -0.18461444       0.46535224
H       -0.25198754       0.00659906      -1.73941890
H        0.09026198       1.46807787      -0.99469124
H       -0.24807533       0.66052968       1.28005864
H       -0.06997135      -1.07950801       1.47895185
H        2.15309020      -0.91773435       0.97097181
H        3.30440493       0.85995456       0.21325247
16
Frame=5 idx=006614 GeodesicLength=0.28443786665097165 rxn_smarts="[C:1]([C@@:2]([O:3][H:12])([C:4]([N:5]([C:6](=[O:7])[H:16])[H:15])([H:13])[H:14])[H:11])([H:8])([H:9])[H:10]>>[C:1]([C:2][C:4]([N:5]([C:6](=[O:7])[H:16])[H:15])([H:13])[H:14])([H:8])([H:9])[H:10].[O:3]([H:11])[H:12]"
C       -2.03914555      -0.87120911      -0.23638418
C       -0.59992715      -0.53676203      -0.47699557
O       -0.68766065       0.94356853      -1.29955222
C        0.13388273      -0.24837999       0.79920842
N        1.58595259      -0.13599971       0.69443382
C        2.20711231       0.92141011       0.16517241
O        1.64623169       1.88669971      -0.33351328
H       -2.08438675      -1.88407410       0.17515022
H       -2.60634215      -0.87802708      -1.16655108
H       -2.53433950      -0.18616450       0.46571694
H       -0.25228954      -0.00228713      -1.74876629
H        0.08987623       1.46756654      -0.99007124
H       -0.24751320       0.65999603       1.28542308
H       -0.06990656      -1.08177680       1.47513592
H        2.15334464      -0.91475152       0.97700938
H        3.30511086       0.86019103       0.21458366
16
Frame=6 idx=006614 GeodesicLength=0.341311952743415 rxn_smarts="[C:1]([C@@:2]([O:3][H:12])([C:4]([N:5]([C:6](=[O:7])[H:16])[H:15])([H:13])[H:14])[H:11])([H:8])([H:9])[H:10]>>[C:1]([C:2][C:4]([N:5]([C:6](=[O:7])[H:16])[H:15])([H:13])[H:14])([H:8])([H:9])[H:10].[O:3]([H:11])[H:12]"
C       -2.03937710      -0.86997635      -0.23743995
C       -0.60180520      -0.52572805      -0.47805886
O       -0.68966056       0.94188087      -1.28993632
C        0.13369100      -0.24693258       0.80017539
N        1.58601006      -0.13546291       0.69405696
C        2.20787191       0.92094109       0.16397120
O        1.64771272       1.88369410      -0.34078753
H       -2.07989518      -1.88384366       0.17178276
H       -2.60744819      -0.87654397      -1.16717340
H       -2.53642485      -0.18770303       0.46594721
H       -0.25259825      -0.01138031      -1.75780624
H        0.08945347       1.46718711      -0.98528859
H       -0.24703232       0.65939586       1.29079586
H       -0.06986220      -1.08403704       1.47133297
H        2.15359368      -0.91161699       0.98324280
H        3.30577102       0.86012585       0.21518576
16
Frame=7 idx=006614 GeodesicLength=0.39818608125149324 rxn_smarts="[C:1]([C@@:2]([O:3][H:12])([C:4]([N:5]([C:6](=[O:7])[H:16])[H:15])([H:13])[H:14])[H:11])([H:8])([H:9])[H:10]>>[C:1]([C:2][C:4]([N:5]([C:6](=[O:7])[H:16])[H:15])([H:13])[H:14])([H:8])([H:9])[H:10].[O:3]([H:11])[H:12]"
C       -2.03957162      -0.86871759      -0.23852537
C       -0.60365819      -0.51479805      -0.47909863
O       -0.69166374       0.94035761      -1.28036371
C        0.13351413      -0.24553769       0.80110039
N        1.58607989      -0.13495406       0.69363238
C        2.20861243       0.92047188       0.16274128
O        1.64916644       1.88063432      -0.34809772
H       -2.07544886      -1.88355874       0.16838065
H       -2.60851028      -0.87498907      -1.16782903
H       -2.53845139      -0.18920068       0.46613106
H       -0.25299846      -0.02072664      -1.76659483
H        0.08899201       1.46690019      -0.98042137
H       -0.24654414       0.65871415       1.29612607
H       -0.06979217      -1.08631134       1.46748706
H        2.15386531      -0.90839148       0.98955300
H        3.30640862       0.86010720       0.21577879
16
Frame=8 idx=006614 GeodesicLength=0.45506152401310584 rxn_smarts="[C:1]([C@@:2]([O:3][H:12])([C:4]([N:5]([C:6](=[O:7])[H:16])[H:15])([H:13])[H:14])[H:11])([H:8])([H:9])[H:10]>>[C:1]([C:2][C:4]([N:5]([C:6](=[O:7])[H:16])[H:15])([H:13])[H:14])([H:8])([H:9])[H:10].[O:3]([H:11])[H:12]"
C       -2.03972984      -0.86743385      -0.23964427
C       -0.60548746      -0.50396258      -0.48011866
O       -0.69368312       0.93901140      -1.27081619
C        0.13335103      -0.24419396       0.80198204
N        1.58616118      -0.13447174       0.69316034
C        2.20933437       0.92000059       0.16147853
O        1.65059920       1.87751340      -0.35546061
H       -2.07104225      -1.88322626       0.16492741
H       -2.60953053      -0.87335658      -1.16852068
H       -2.54042346      -0.19067048       0.46627327
H       -0.25348082      -0.03033406      -1.77513488
H        0.08848669       1.46671441      -0.97545762
H       -0.24604728       0.65794847       1.30141925
H       -0.06969744      -1.08860329       1.46359049
H        2.15415672      -0.90505357       0.99598237
H        3.30703302       0.86011811       0.21633920
16
Frame=9 idx=006614 GeodesicLength=0.5119453461251882 rxn_smarts="[C:1]([C@@:2]([O:3][H:12])([C:4]([N:5]([C:6](=[O:7])[H:16])[H:15])([H:13])[H:14])[H:11])([H:8])([H:9])[H:10]>>[C:1]([C:2][C:4]([N:5]([C:6](=[O:7])[H:16])[H:15])([H:13])[H:14])([H:8])([H:9])[H:10].[O:3]([H:11])[H:12]"
C       -2.03986179      -0.86611961      -0.24078754
C       -0.60730432      -0.49321573      -0.48113101
O       -0.69574317       0.93785394      -1.26127901
C        0.13321084      -0.24290888       0.80280049
N        1.58626262      -0.13403805       0.69260002
C        2.21005167       0.91949372       0.16012612
O        1.65203048       1.87429920      -0.36293722
H       -2.06667920      -1.88284804       0.16141751
H       -2.61053581      -0.87162576      -1.16922936
H       -2.54233874      -0.19211688       0.46640199
H       -0.25406638      -0.04021672      -1.78344367
H        0.08793514       1.46662774      -0.97040934
H       -0.24551505       0.65709356       1.30666525
H       -0.06956769      -1.09092210       1.45962246
H        2.15447587      -0.90159832       1.00254619
H        3.30764553       0.86024193       0.21703714
16
Frame=10 idx=006614 GeodesicLength=0.5688419621231915 rxn_smarts="[C:1]([C@@:2]([O:3][H:12])([C:4]([N:5]([C:6](=[O:7])[H:16])[H:15])([H:13])[H:14])[H:11])([H:8])([H:9])[H:10]>>[C:1]([C:2][C:4]([N:5]([C:6](=[O:7])[H:16])[H:15])([H:13])[H:14])([H:8])([H:9])[H:10].[O:3]([H:11])[H:12]"
C       -2.03995236      -0.86478707      -0.24198097
C       -0.60909434      -0.48254000      -0.48212932
O       -0.69784248       0.93690820      -1.25171868
C        0.13307908      -0.24167078       0.80358077
N        1.58637104      -0.13362511       0.69200564
C        2.21075160       0.91898790       0.15875501
O        1.65344863       1.87101715      -0.37047543
H       -2.06233148      -1.88244403       0.15780777
H       -2.61149181      -0.86980611      -1.16999222
H       -2.54420742      -0.19357075       0.46649086
H       -0.25471143      -0.05036598      -1.79150426
H        0.08733496       1.46666759      -0.96523333
H       -0.24498019       0.65615189       1.31189055
H       -0.06942073      -1.09326616       1.45559391
H        2.15480821      -0.89795996       1.00937270
H        3.30823873       0.86030321       0.21753700
16
Frame=11 idx=006614 GeodesicLength=0.6257371862726744 rxn_smarts="[C:1]([C@@:2]([O:3][H:12])([C:4]([N:5]([C:6](=[O:7])[H:16])[H:15])([H:13])[H:14])[H:11])([H:8])([H:9])[H:10]>>[C:1]([C:2][C:4]([N:5]([C:6](=[O:7])[H:16])[H:15])([H:13])[H:14])([H:8])([H:9])[H:10].[O:3]([H:11])[H:12]"
C       -2.04004300      -0.86340372      -0.24317495
C       -0.61089903      -0.47194582      -0.48314309
O       -0.70002129       0.93616099      -1.24215884
C        0.13299247      -0.24051659       0.80425405
N        1.58652092      -0.13331264       0.69122923
C        2.21146900       0.91838545       0.15717991
O        1.65489502       1.86757809      -0.37825016
H       -2.05804774      -1.88198815       0.15413281
H       -2.61249867      -0.86783133      -1.17072516
H       -2.54600746      -0.19499428       0.46663038
H       -0.25550531      -0.06083769      -1.79936452
H        0.08668592       1.46679309      -0.96000995
H       -0.24435075       0.65509700       1.31705010
H       -0.06920632      -1.09567311       1.45144007
H        2.15518609      -0.89418919       1.01635035
H        3.30883014       0.86067788       0.21855979
16
Frame=12 idx=006614 GeodesicLength=0.6826343169737581 rxn_smarts="[C:1]([C@@:2]([O:3][H:12])([C:4]([N:5]([C:6](=[O:7])[H:16])[H:15])([H:13])[H:14])[H:11])([H:8])([H:9])[H:10]>>[C:1]([C:2][C:4]([N:5]([C:6](=[O:7])[H:16])[H:15])([H:13])[H:14])([H:8])([H:9])[H:10].[O:3]([H:11])[H:12]"
C       -2.04015270      -0.86195286      -0.24434984
C       -0.61273246      -0.46144514      -0.48419089
O       -0.70229663       0.93560936      -1.23259019
C        0.13296836      -0.23946477       0.80478345
N        1.58672698      -0.13313593       0.69020060
C        2.21221857       0.91763998       0.15531687
O        1.65638890       1.86393356      -0.38634537
H       -2.05385385      -1.88146597       0.15040331
H       -2.61359996      -0.86566640      -1.17138924
H       -2.54772735      -0.19636923       0.46685739
H       -0.25647717      -0.07165781      -1.80705574
H        0.08598690       1.46698225      -0.95474498
H       -0.24358281       0.65391044       1.32211777
H       -0.06890249      -1.09816155       1.44712336
H        2.15562243      -0.89028910       1.02346612
H        3.30941327       0.86153318       0.22039739
16
Frame=13 idx=006614 GeodesicLength=0.739541216290297 rxn_smarts="[C:1]([C@@:2]([O:3][H:12])([C:4]([N:5]([C:6](=[O:7])[H:16])[H:15])([H:13])[H:14])[H:11])([H:8])([H:9])[H:10]>>[C:1]([C:2][C:4]([N:5]([C:6](=[O:7])[H:16])[H:15])([H:13])[H:14])([H:8])([H:9])[H:10].[O:3]([H:11])[H:12]"
C       -2.04026946      -0.86043945      -0.24552273
C       -0.61458280      -0.45101754      -0.48526066
O       -0.70465666       0.93526213      -1.22300078
C        0.13299342      -0.23850326       0.80519852
N        1.58697889      -0.13306826       0.68898140
C        2.21298566       0.91679511       0.15324733
O        1.65791049       1.86012033      -0.39468992
H       -2.04973258      -1.88088489       0.14660109
H       -2.61476601      -0.86332481      -1.17201532
H       -2.54937769      -0.19770731       0.46714806
H       -0.25757469      -0.08285555      -1.81454838
H        0.08525393       1.46725049      -0.94943784
H       -0.24271136       0.65259754       1.32712351
H       -0.06852624      -1.10072675       1.44266436
H        2.15610132      -0.88624800       1.03071747
H        3.30997379       0.86275023       0.22279388
16
Frame=14 idx=006614 GeodesicLength=0.796458299342355 rxn_smarts="[C:1]([C@@:2]([O:3][H:12])([C:4]([N:5]([C:6](=[O:7])[H:16])[H:15])([H:13])[H:14])[H:11])([H:8])([H:9])[H:10]>>[C:1]([C:2][C:4]([N:5]([C:6](=[O:7])[H:16])[H:15])([H:13])[H:14])([H:8])([H:9])[H:10].[O:3]([H:11])[H:12]"
C       -2.04038550      -0.85886481      -0.24670491
C       -0.61643833      -0.44065819      -0.48634729
O       -0.70708945       0.93512124      -1.21337498
C        0.13305863      -0.23762446       0.80551544
N        1.58726849      -0.13308777       0.68761224
C        2.21375699       0.91588481       0.15103010
O        1.65944225       1.85616365      -0.40323154
H       -2.04568039      -1.88024298       0.14272278
H       -2.61597485      -0.86081651      -1.17262208
H       -2.55096311      -0.19900846       0.46747981
H       -0.25874849      -0.09445731      -1.82182379
H        0.08449669       1.46760196      -0.94407094
H       -0.24176075       0.65115920       1.33207995
H       -0.06808922      -1.10336290       1.43807449
H        2.15661007      -0.88206038       1.03808733
H        3.31049696       0.86425292       0.22557341
16
Frame=15 idx=006614 GeodesicLength=0.8533818893102332 rxn_smarts="[C:1]([C@@:2]([O:3][H:12])([C:4]([N:5]([C:6](=[O:7])[H:16])[H:15])([H:13])[H:14])[H:11])([H:8])([H:9])[H:10]>>[C:1]([C:2][C:4]([N:5]([C:6](=[O:7])[H:16])[H:15])([H:13])[H:14])([H:8])([H:9])[H:10].[O:3]([H:11])[H:12]"
C       -2.04049694      -0.85722724      -0.24790196
C       -0.61829195      -0.43036324      -0.48744822
O       -0.70958760       0.93518753      -1.20370235
C        0.13315868      -0.23682388       0.80574415
N        1.58759140      -0.13318041       0.68611938
C        2.21452352       0.91493277       0.14870374
O        1.66097125       1.85208073      -0.41193618
H       -2.04169775      -1.87953590       0.13877044
H       -2.61721393      -0.85814645      -1.17321982
H       -2.55248641      -0.20026800       0.46783935
H       -0.25996071      -0.10649481      -1.82886755
H        0.08372387       1.46803754      -0.93863846
H       -0.24074648       0.64959547       1.33699520
H       -0.06759794      -1.10606668       1.43336103
H        2.15713985      -0.87773327       1.04553856
H        3.31097114       0.86600585       0.22864268
16
Frame=16 idx=006614 GeodesicLength=0.9103081695060156 rxn_smarts="[C:1]([C@@:2]([O:3][H:12])([C:4]([N:5]([C:6](=[O:7])[H:16])[H:15])([H:13])[H:14])[H:11])([H:8])([H:9])[H:10]>>[C:1]([C:2][C:4]([N:5]([C:6](=[O:7])[H:16])[H:15])([H:13])[H:14])([H:8])([H:9])[H:10].[O:3]([H:11])[H:12]"
C       -2.04060099      -0.85552431      -0.24911775
C       -0.62013796      -0.42012848      -0.48856160
O       -0.71214557       0.93546183      -1.19397342
C        0.13328897      -0.23609705       0.80589286
N        1.58794387      -0.13333320       0.68452541
C        2.21527738       0.91396010       0.14630061
O        1.66248623       1.84788683      -0.42077509
H       -2.03778602      -1.87875857       0.13474827
H       -2.61847305      -0.85531899      -1.17381655
H       -2.55395026      -0.20148010       0.46821564
H       -0.26117608      -0.11900300      -1.83566433
H        0.08294386       1.46855732      -0.93313824
H       -0.23968184       0.64790703       1.34187584
H       -0.06705776      -1.10883432       1.42853016
H        2.15768294      -0.87328074       1.05302343
H        3.31138629       0.86798564       0.23193475
