12
Frame=0 idx=002165 GeodesicLength=0.0 rxn_smarts="[O:1]=[C:2]([C:3]1([H:8])[C:4]([H:9])([H:10])[O:5][C:6]1([H:11])[H:12])[H:7]>>[O:1]=[C:2]([C:3]([C:6]([O+:5]=[C-:4][H:10])([H:11])[H:12])([H:8])[H:9])[H:7]"
O        2.13594035      -1.61573524      -0.02559306
C        1.33673040      -0.80529911       0.35595216
C        0.35022610      -0.13351534      -0.53807682
C       -1.65519242      -0.52285270      -0.03700543
O       -1.70087838       0.84443132      -0.21840047
C       -0.33532717       1.15334543      -0.03667742
H        1.26799502      -0.52906519       1.42880556
H        0.70176921      -0.10670049      -1.57139997
H       -0.60766764      -0.91739565      -0.78176921
H       -1.30134389      -0.73172833       1.00136405
H       -0.11155643       1.31579147       1.02698530
H       -0.08069516       2.04872387      -0.60418474
12
Frame=1 idx=002165 GeodesicLength=0.05605469895254866 rxn_smarts="[O:1]=[C:2]([C:3]1([H:8])[C:4]([H:9])([H:10])[O:5][C:6]1([H:11])[H:12])[H:7]>>[O:1]=[C:2]([C:3]([C:6]([O+:5]=[C-:4][H:10])([H:11])[H:12])([H:8])[H:9])[H:7]"
O        2.12748294      -1.62051944      -0.01495831
C        1.32800040      -0.80795386       0.36117244
C        0.34618823      -0.13371921      -0.53769422
C       -1.65309086      -0.52315960      -0.03199572
O       -1.70180458       0.84466257      -0.19043634
C       -0.33121207       1.15666600      -0.03797989
H        1.26250120      -0.52643580       1.43307013
H        0.71554354      -0.09305010      -1.56438706
H       -0.61667433      -0.91936056      -0.81158942
H       -1.29369724      -0.75893935       0.99747508
H       -0.09242632       1.33635075       1.01913851
H       -0.09081091       2.04545861      -0.62181519
12
Frame=2 idx=002165 GeodesicLength=0.11216188188841159 rxn_smarts="[O:1]=[C:2]([C:3]1([H:8])[C:4]([H:9])([H:10])[O:5][C:6]1([H:11])[H:12])[H:7]>>[O:1]=[C:2]([C:3]([C:6]([O+:5]=[C-:4][H:10])([H:11])[H:12])([H:8])[H:9])[H:7]"
O        2.11849922      -1.62572241      -0.00402865
C        1.31952090      -0.81017232       0.36644085
C        0.34229750      -0.13374465      -0.53737208
C       -1.65073832      -0.52351396      -0.02711488
O       -1.70205442       0.84463146      -0.16140256
C       -0.32703304       1.16013471      -0.03931145
H        1.25672575      -0.52379706       1.43745182
H        0.72919533      -0.07980966      -1.55705835
H       -0.62564487      -0.92042647      -0.84129254
H       -1.28623302      -0.78689368       0.99264419
H       -0.07267697       1.35731363       1.01055088
H       -0.10185806       2.04200041      -0.63950724
12
Frame=3 idx=002165 GeodesicLength=0.1682354324759207 rxn_smarts="[O:1]=[C:2]([C:3]1([H:8])[C:4]([H:9])([H:10])[O:5][C:6]1([H:11])[H:12])[H:7]>>[O:1]=[C:2]([C:3]([C:6]([O+:5]=[C-:4][H:10])([H:11])[H:12])([H:8])[H:9])[H:7]"
O        2.10894862      -1.63123091       0.00720715
C        1.31123573      -0.81193045       0.37176825
C        0.33854505      -0.13361531      -0.53707617
C       -1.64811585      -0.52389888      -0.02235980
O       -1.70149321       0.84426121      -0.13127638
C       -0.32275116       1.16372130      -0.04067473
H        1.25057288      -0.52110584       1.44190384
H        0.74266508      -0.06698684      -1.54937914
H       -0.63462279      -0.92063006      -0.87083680
H       -1.27887861      -0.81554218       0.98675596
H       -0.05228026       1.37864431       1.00114282
H       -0.11382548       2.03831364      -0.65717500
12
Frame=4 idx=002165 GeodesicLength=0.22433239994135107 rxn_smarts="[O:1]=[C:2]([C:3]1([H:8])[C:4]([H:9])([H:10])[O:5][C:6]1([H:11])[H:12])[H:7]>>[O:1]=[C:2]([C:3]([C:6]([O+:5]=[C-:4][H:10])([H:11])[H:12])([H:8])[H:9])[H:7]"
O        2.09897528      -1.63692974       0.01871363
C        1.30314778      -0.81327763       0.37716629
C        0.33493323      -0.13333749      -0.53681256
C       -1.64527469      -0.52425654      -0.01768160
O       -1.70007083       0.84360543      -0.10001324
C       -0.31836722       1.16744352      -0.04207431
H        1.24400875      -0.51844547       1.44649828
H        0.75596125      -0.05462164      -1.54140143
H       -0.64359335      -0.91999921      -0.90021506
H       -1.27173880      -0.84489929       0.97977985
H       -0.03124725       1.40037953       0.99087217
H       -0.12673416       2.03433853      -0.67483203
12
Frame=5 idx=002165 GeodesicLength=0.280439659438394 rxn_smarts="[O:1]=[C:2]([C:3]1([H:8])[C:4]([H:9])([H:10])[O:5][C:6]1([H:11])[H:12])[H:7]>>[O:1]=[C:2]([C:3]([C:6]([O+:5]=[C-:4][H:10])([H:11])[H:12])([H:8])[H:9])[H:7]"
O        2.08869048      -1.64281821       0.03051485
C        1.29529123      -0.81424567       0.38266287
C        0.33147108      -0.13293580      -0.53658585
C       -1.64227233      -0.52452745      -0.01305505
O       -1.69772840       0.84260972      -0.06765169
C       -0.31389356       1.17129155      -0.04352780
H        1.23703802      -0.51582887       1.45127384
H        0.76907241      -0.04270050      -1.53319790
H       -0.65262943      -0.91854397      -0.92940946
H       -1.26479893      -0.87485853       0.97168501
H       -0.00963392       1.42245565       0.97970055
H       -0.14060664       2.03010209      -0.69240939
12
Frame=6 idx=002165 GeodesicLength=0.3365724202095574 rxn_smarts="[O:1]=[C:2]([C:3]1([H:8])[C:4]([H:9])([H:10])[O:5][C:6]1([H:11])[H:12])[H:7]>>[O:1]=[C:2]([C:3]([C:6]([O+:5]=[C-:4][H:10])([H:11])[H:12])([H:8])[H:9])[H:7]"
O        2.07795022      -1.64887847       0.04265349
C        1.28761925      -0.81479888       0.38826047
C        0.32816971      -0.13238871      -0.53637692
C       -1.63904788      -0.52471783      -0.00843127
O       -1.69432470       0.84123545      -0.03403925
C       -0.30930043       1.17527139      -0.04504628
H        1.22954043      -0.51323391       1.45620733
H        0.78202029      -0.03118232      -1.52472372
H       -0.66170420      -0.91625442      -0.95842355
H       -1.25801692      -0.90550893       0.96233112
H        0.01261859       1.44494047       0.96750186
H       -0.15552435       2.02551615      -0.70991328
12
Frame=7 idx=002165 GeodesicLength=0.3928599117176423 rxn_smarts="[O:1]=[C:2]([C:3]1([H:8])[C:4]([H:9])([H:10])[O:5][C:6]1([H:11])[H:12])[H:7]>>[O:1]=[C:2]([C:3]([C:6]([O+:5]=[C-:4][H:10])([H:11])[H:12])([H:8])[H:9])[H:7]"
O        2.06703560      -1.65508575       0.05511590
C        1.28021929      -0.81502478       0.39400039
C        0.32504851      -0.13173186      -0.53622490
C       -1.63572557      -0.52473131      -0.00377389
O       -1.68992846       0.83956957       0.00077879
C       -0.30463912       1.17939977      -0.04663920
H        1.22157366      -0.51074793       1.46142168
H        0.79484600      -0.02011016      -1.51613289
H       -0.67086142      -0.91316143      -0.98730498
H       -1.25147845      -0.93673790       0.95178005
H        0.03541671       1.46775582       0.95433224
H       -0.17150675       2.02060598      -0.72735320
12
Frame=8 idx=002165 GeodesicLength=0.4489869604920189 rxn_smarts="[O:1]=[C:2]([C:3]1([H:8])[C:4]([H:9])([H:10])[O:5][C:6]1([H:11])[H:12])[H:7]>>[O:1]=[C:2]([C:3]([C:6]([O+:5]=[C-:4][H:10])([H:11])[H:12])([H:8])[H:9])[H:7]"
O        2.05544374      -1.66133565       0.06798884
C        1.27290530      -0.81473189       0.39983323
C        0.32207844      -0.13093737      -0.53603627
C       -1.63210950      -0.52465589       0.00094589
O       -1.68395397       0.83725055       0.03688135
C       -0.29979597       1.18360358      -0.04831118
H        1.21290995      -0.50816775       1.46667742
H        0.80745974      -0.00941538      -1.50719512
H       -0.68016440      -0.90926151      -1.01585558
H       -1.24500365      -0.96852893       0.93964539
H        0.05884291       1.49092352       0.93986303
H       -0.18861260       2.01525673      -0.74443701
12
Frame=9 idx=002165 GeodesicLength=0.505475393917114 rxn_smarts="[O:1]=[C:2]([C:3]1([H:8])[C:4]([H:9])([H:10])[O:5][C:6]1([H:11])[H:12])[H:7]>>[O:1]=[C:2]([C:3]([C:6]([O+:5]=[C-:4][H:10])([H:11])[H:12])([H:8])[H:9])[H:7]"
O        2.04389222      -1.66786985       0.08126146
C        1.26601273      -0.81419917       0.40587696
C        0.31935758      -0.13004917      -0.53596324
C       -1.62852137      -0.52427650       0.00581801
O       -1.67688124       0.83459896       0.07424129
C       -0.29494570       1.18798678      -0.05010027
H        1.20379001      -0.50578170       1.47238560
H        0.82006464       0.00085652      -1.49835197
H       -0.68963635      -0.90452899      -1.04433640
H       -1.23882675      -1.00074914       0.92622975
H        0.08268763       1.51440836       0.92433675
H       -0.20699340       2.00960392      -0.76139795
12
Frame=10 idx=002165 GeodesicLength=0.5616644991872267 rxn_smarts="[O:1]=[C:2]([C:3]1([H:8])[C:4]([H:9])([H:10])[O:5][C:6]1([H:11])[H:12])[H:7]>>[O:1]=[C:2]([C:3]([C:6]([O+:5]=[C-:4][H:10])([H:11])[H:12])([H:8])[H:9])[H:7]"
O        2.03167812      -1.67400973       0.09480106
C        1.25899492      -0.81317848       0.41195943
C        0.31673100      -0.12906817      -0.53578898
C       -1.62448341      -0.52380386       0.01086424
O       -1.66803354       0.83129391       0.11264659
C       -0.28985283       1.19238625      -0.05194745
H        1.19378691      -0.50326331       1.47796057
H        0.83228131       0.01072600      -1.48902434
H       -0.69917919      -0.89917157      -1.07232153
H       -1.23272750      -1.03332029       0.91116645
H        0.10700699       1.53808253       0.90748927
H       -0.22620277       2.00332671      -0.77780531
12
Frame=11 idx=002165 GeodesicLength=0.618124785334093 rxn_smarts="[O:1]=[C:2]([C:3]1([H:8])[C:4]([H:9])([H:10])[O:5][C:6]1([H:11])[H:12])[H:7]>>[O:1]=[C:2]([C:3]([C:6]([O+:5]=[C-:4][H:10])([H:11])[H:12])([H:8])[H:9])[H:7]"
O        2.01945069      -1.68027735       0.10874234
C        1.25232608      -0.81189531       0.41824032
C        0.31435474      -0.12801330      -0.53570236
C       -1.62041186      -0.52301034       0.01617801
O       -1.65773737       0.82749882       0.15215144
C       -0.28472737       1.19691363      -0.05392344
H        1.18319929      -0.50089446       1.48389070
H        0.84444690       0.02019044      -1.47977190
H       -0.70895407      -0.89306655      -1.10010887
H       -1.22688700      -1.06606233       0.89466828
H        0.13158186       1.56194293       0.88945789
H       -0.24664188       1.99667383      -0.79382242
12
Frame=12 idx=002165 GeodesicLength=0.6747315535061824 rxn_smarts="[O:1]=[C:2]([C:3]1([H:8])[C:4]([H:9])([H:10])[O:5][C:6]1([H:11])[H:12])[H:7]>>[O:1]=[C:2]([C:3]([C:6]([O+:5]=[C-:4][H:10])([H:11])[H:12])([H:8])[H:9])[H:7]"
O        2.00683170      -1.68666115       0.12310825
C        1.24591905      -0.81022095       0.42465994
C        0.31221631      -0.12686230      -0.53566387
C       -1.61612809      -0.52197628       0.02182877
O       -1.64567365       0.82301480       0.19263316
C       -0.27953598       1.20152205      -0.05602067
H        1.17191714      -0.49854124       1.49000581
H        0.85651573       0.02932443      -1.47045013
H       -0.71894834      -0.88625401      -1.12756893
H       -1.22117439      -1.09885914       0.87658280
H        0.15633648       1.58595982       0.87011822
H       -0.26827595       1.98955395      -0.80923334
12
Frame=13 idx=002165 GeodesicLength=0.7316449566247704 rxn_smarts="[O:1]=[C:2]([C:3]1([H:8])[C:4]([H:9])([H:10])[O:5][C:6]1([H:11])[H:12])[H:7]>>[O:1]=[C:2]([C:3]([C:6]([O+:5]=[C-:4][H:10])([H:11])[H:12])([H:8])[H:9])[H:7]"
O        1.99412014      -1.69301878       0.13781614
C        1.23980077      -0.80827217       0.43123177
C        0.31032652      -0.12565532      -0.53569597
C       -1.61170801      -0.52063887       0.02788864
O       -1.63199873       0.81796302       0.23389588
C       -0.27429663       1.20619178      -0.05823985
H        1.16000372      -0.49627590       1.49634130
H        0.86850641       0.03810762      -1.46114979
H       -0.72919301      -0.87880102      -1.15473497
H       -1.21570486      -1.13151799       0.85706320
H        0.18109522       1.60997711       0.84962355
H       -0.29095154       1.98194053      -0.82403990
12
Frame=14 idx=002165 GeodesicLength=0.7886015778308368 rxn_smarts="[O:1]=[C:2]([C:3]1([H:8])[C:4]([H:9])([H:10])[O:5][C:6]1([H:11])[H:12])[H:7]>>[O:1]=[C:2]([C:3]([C:6]([O+:5]=[C-:4][H:10])([H:11])[H:12])([H:8])[H:9])[H:7]"
O        1.98106979      -1.69914100       0.15279000
C        1.23379274      -0.80595710       0.43786215
C        0.30862520      -0.12441777      -0.53573647
C       -1.60695697      -0.51910717       0.03441448
O       -1.61631953       0.81215089       0.27549451
C       -0.26897164       1.21083850      -0.06054762
H        1.14732589      -0.49396141       1.50264218
H        0.88024047       0.04651875      -1.45171809
H       -0.73970790      -0.87090797      -1.18135872
H       -1.21031878      -1.16369373       0.83602863
H        0.20564507       1.63385960       0.82792913
H       -0.31442432       1.97381842      -0.83780017
12
Frame=15 idx=002165 GeodesicLength=0.8457028177724144 rxn_smarts="[O:1]=[C:2]([C:3]1([H:8])[C:4]([H:9])([H:10])[O:5][C:6]1([H:11])[H:12])[H:7]>>[O:1]=[C:2]([C:3]([C:6]([O+:5]=[C-:4][H:10])([H:11])[H:12])([H:8])[H:9])[H:7]"
O        1.96795057      -1.70509969       0.16796985
C        1.22801153      -0.80341141       0.44455174
C        0.30714542      -0.12316132      -0.53583649
C       -1.60194892      -0.51735147       0.04151180
O       -1.59890618       0.80570995       0.31708457
C       -0.26363529       1.21546843      -0.06296852
H        1.13404425      -0.49173695       1.50896617
H        0.89179559       0.05462106      -1.44230618
H       -0.75049831      -0.86260962      -1.20745820
H       -1.20509951      -1.19516153       0.81379847
H        0.22969798       1.65743315       0.80524045
H       -0.33855712       1.96529942      -0.85055366
12
Frame=16 idx=002165 GeodesicLength=0.9030782167649232 rxn_smarts="[O:1]=[C:2]([C:3]1([H:8])[C:4]([H:9])([H:10])[O:5][C:6]1([H:11])[H:12])[H:7]>>[O:1]=[C:2]([C:3]([C:6]([O+:5]=[C-:4][H:10])([H:11])[H:12])([H:8])[H:9])[H:7]"
O        1.95498070      -1.71084444       0.18324405
C        1.22250990      -0.80070662       0.45128307
C        0.30588394      -0.12192968      -0.53602301
C       -1.59675433      -0.51538697       0.04921055
O       -1.57998685       0.79872902       0.35826509
C       -0.25832524       1.22003912      -0.06546345
H        1.12033474      -0.48959329       1.51532590
H        0.90317229       0.06237533      -1.43300615
H       -0.76163669      -0.85403714      -1.23308838
H       -1.20010199      -1.22560573       0.79061169
H        0.25302069       1.68055270       0.78184892
H       -0.36309716       1.95640768      -0.86220828
