15
Frame=0 idx=009080 GeodesicLength=0.0 rxn_smarts="[C:1]([n:2]1[c:3]([H:11])[c:4]([H:12])[c:5]([C:6]([H:13])([H:14])[H:15])[n:7]1)([H:8])([H:9])[H:10]>>[C:1](=[N+:2]1[C:3]([H:11])=[C:4]([H:12])[C@:5]([C:6]([H:13])([H:14])[H:15])([H:10])[N-:7]1)([H:8])[H:9]"
C        2.06972446      -0.51105310       0.12848984
N        1.22215293      -0.03856100      -0.82847267
C        0.83559522       1.32292498      -0.64433466
C       -0.37437826       1.26660480      -0.10659326
C       -0.67745370      -0.18863636      -0.03170814
C       -2.04244150      -0.72067783       0.26933163
N        0.14025711      -0.85103214      -0.88738711
H        2.96744114       0.06599901       0.32997044
H        2.10661618      -1.58779077       0.22361745
H        0.35876445      -0.37131161       1.01649227
H        1.55369236       2.11480740      -0.78000302
H       -0.98901864       2.06308245       0.28008777
H       -2.74835321      -0.42296070      -0.50849848
H       -2.40428868      -0.33313320       1.22224915
H       -2.01830992      -1.80826193       0.31675884
15
Frame=1 idx=009080 GeodesicLength=0.05595612325960323 rxn_smarts="[C:1]([n:2]1[c:3]([H:11])[c:4]([H:12])[c:5]([C:6]([H:13])([H:14])[H:15])[n:7]1)([H:8])([H:9])[H:10]>>[C:1](=[N+:2]1[C:3]([H:11])=[C:4]([H:12])[C@:5]([C:6]([H:13])([H:14])[H:15])([H:10])[N-:7]1)([H:8])[H:9]"
C        2.07658752      -0.51228635       0.13106092
N        1.22020475      -0.04208862      -0.82218276
C        0.83080411       1.31865967      -0.64885159
C       -0.37997352       1.26574616      -0.10832004
C       -0.67934805      -0.18788418      -0.01679371
C       -2.04960667      -0.71675601       0.26813854
N        0.13636232      -0.85032261      -0.87884702
H        2.96878407       0.07571462       0.32398965
H        2.13566818      -1.58991783       0.20306683
H        0.37635960      -0.38467968       1.03540342
H        1.55362390       2.10805690      -0.77440667
H       -0.99229288       2.06664833       0.27286695
H       -2.74693857      -0.41994209      -0.51779750
H       -2.42244322      -0.32657588       1.21582601
H       -2.02779155      -1.80437243       0.31684700
15
Frame=2 idx=009080 GeodesicLength=0.11184303544923999 rxn_smarts="[C:1]([n:2]1[c:3]([H:11])[c:4]([H:12])[c:5]([C:6]([H:13])([H:14])[H:15])[n:7]1)([H:8])([H:9])[H:10]>>[C:1](=[N+:2]1[C:3]([H:11])=[C:4]([H:12])[C@:5]([C:6]([H:13])([H:14])[H:15])([H:10])[N-:7]1)([H:8])[H:9]"
C        2.08344129      -0.51373680       0.13358050
N        1.21819776      -0.04567068      -0.81573386
C        0.82607612       1.31428921      -0.65320459
C       -0.38569832       1.26489773      -0.11032953
C       -0.68135034      -0.18694490      -0.00189625
C       -2.05668101      -0.71273205       0.26694664
N        0.13238982      -0.84961211      -0.87016672
H        2.96973079       0.08526646       0.31846292
H        2.16470713      -1.59133629       0.18203202
H        0.39425100      -0.39856596       1.05425122
H        1.55343035       2.10118529      -0.76884042
H       -0.99548880       2.07020790       0.26558765
H       -2.74540685      -0.41705888      -0.52702880
H       -2.44047269      -0.31982672       1.20921336
H       -2.03712626      -1.80036220       0.31712585
15
Frame=3 idx=009080 GeodesicLength=0.1676698160022165 rxn_smarts="[C:1]([n:2]1[c:3]([H:11])[c:4]([H:12])[c:5]([C:6]([H:13])([H:14])[H:15])[n:7]1)([H:8])([H:9])[H:10]>>[C:1](=[N+:2]1[C:3]([H:11])=[C:4]([H:12])[C@:5]([C:6]([H:13])([H:14])[H:15])([H:10])[N-:7]1)([H:8])[H:9]"
C        2.09029055      -0.51540816       0.13604291
N        1.21614015      -0.04930417      -0.80912832
C        0.82142163       1.30982450      -0.65739995
C       -0.39155715       1.26406767      -0.11264519
C       -0.68346987      -0.18580608       0.01296190
C       -2.06366966      -0.70861219       0.26576554
N        0.12834427      -0.84890020      -0.86135893
H        2.97029142       0.09464697       0.31340602
H        2.19370692      -1.59202857       0.16052865
H        0.41243596      -0.41300779       1.07301539
H        1.55313649       2.09420954      -0.76328481
H       -0.99860689       2.07377730       0.25823584
H       -2.74377782      -0.41433409      -0.53617671
H       -2.45837399      -0.31288382       1.20242267
H       -2.04631201      -1.79624092       0.31761499
15
Frame=4 idx=009080 GeodesicLength=0.22343376735915385 rxn_smarts="[C:1]([n:2]1[c:3]([H:11])[c:4]([H:12])[c:5]([C:6]([H:13])([H:14])[H:15])[n:7]1)([H:8])([H:9])[H:10]>>[C:1](=[N+:2]1[C:3]([H:11])=[C:4]([H:12])[C@:5]([C:6]([H:13])([H:14])[H:15])([H:10])[N-:7]1)([H:8])[H:9]"
C        2.09713221      -0.51730428       0.13844004
N        1.21403111      -0.05298624      -0.80236862
C        0.81684397       1.30526833      -0.66144591
C       -0.39755098       1.26325670      -0.11528842
C       -0.68571122      -0.18445359       0.02775859
C       -2.07056732      -0.70439601       0.26460477
N        0.12422575      -0.84818111      -0.85243525
H        2.97045614       0.10385323       0.30885243
H        2.22264371      -1.59197096       0.13856817
H        0.43091485      -0.42805032       1.09167290
H        1.55275471       2.08713387      -0.75771725
H       -1.00164628       2.07736187       0.25078390
H       -2.74206372      -0.41177742      -0.54522144
H       -2.47612436      -0.30574815       1.19546728
H       -2.05533857      -1.79200591       0.31832880
15
Frame=5 idx=009080 GeodesicLength=0.27913529782129143 rxn_smarts="[C:1]([n:2]1[c:3]([H:11])[c:4]([H:12])[c:5]([C:6]([H:13])([H:14])[H:15])[n:7]1)([H:8])([H:9])[H:10]>>[C:1](=[N+:2]1[C:3]([H:11])=[C:4]([H:12])[C@:5]([C:6]([H:13])([H:14])[H:15])([H:10])[N-:7]1)([H:8])[H:9]"
C        2.10396527      -0.51942739       0.14076663
N        1.21187234      -0.05671425      -0.79545577
C        0.81234794       1.30062523      -0.66535122
C       -0.40368094       1.26246701      -0.11828142
C       -0.68807980      -0.18287347       0.04247216
C       -2.07737293      -0.70008420       0.26347354
N        0.12003605      -0.84745106      -0.84340593
H        2.97022065       0.11288180       0.30483094
H        2.25149784      -1.59113965       0.11616312
H        0.44968740      -0.44374039       1.11020106
H        1.55229816       2.07996479      -0.75211997
H       -1.00460408       2.08096876       0.24320984
H       -2.74027969      -0.40940040      -0.55414560
H       -2.49370824      -0.29841989       1.18836040
H       -2.06420000      -1.78765688       0.31928223
15
Frame=6 idx=009080 GeodesicLength=0.3347754213165406 rxn_smarts="[C:1]([n:2]1[c:3]([H:11])[c:4]([H:12])[c:5]([C:6]([H:13])([H:14])[H:15])[n:7]1)([H:8])([H:9])[H:10]>>[C:1](=[N+:2]1[C:3]([H:11])=[C:4]([H:12])[C@:5]([C:6]([H:13])([H:14])[H:15])([H:10])[N-:7]1)([H:8])[H:9]"
C        2.11078961      -0.52177949       0.14301718
N        1.20966562      -0.06048518      -0.78839011
C        0.80793834       1.29589981      -0.66912415
C       -0.40994702       1.26170048      -0.12164465
C       -0.69058022      -0.18105180       0.05708252
C       -2.08408609      -0.69567677       0.26238144
N        0.11577699      -0.84670607      -0.83428029
H        2.96958118       0.12172929       0.30137075
H        2.28025153      -1.58951010       0.09332478
H        0.46875497      -0.46012898       1.12857710
H        1.55177860       2.07270859      -0.74647517
H       -1.00747971       2.08460468       0.23548640
H       -2.73844069      -0.40721307      -0.56293235
H       -2.51111179      -0.29089876       1.18111576
H       -2.07289130      -1.78319263       0.32049077
15
Frame=7 idx=009080 GeodesicLength=0.39035419885496075 rxn_smarts="[C:1]([n:2]1[c:3]([H:11])[c:4]([H:12])[c:5]([C:6]([H:13])([H:14])[H:15])[n:7]1)([H:8])([H:9])[H:10]>>[C:1](=[N+:2]1[C:3]([H:11])=[C:4]([H:12])[C@:5]([C:6]([H:13])([H:14])[H:15])([H:10])[N-:7]1)([H:8])[H:9]"
C        2.11760575      -0.52436124       0.14518670
N        1.20741289      -0.06429591      -0.78117121
C        0.80361973       1.29109668      -0.67277315
C       -0.41634823       1.26095878      -0.12539720
C       -0.69321648      -0.17897436       0.07157085
C       -2.09070727      -0.69117342       0.26133802
N        0.11145070      -0.84594220      -0.82506653
H        2.96853535       0.13039141       0.29849871
H        2.30888790      -1.58705604       0.07006863
H        0.48812014      -0.47727082       1.14677669
H        1.55120615       2.06537144      -0.74076681
H       -1.01027341       2.08827624       0.22758401
H       -2.73656226      -0.40522291      -0.57156484
H       -2.52832183      -0.28318593       1.17374861
H       -2.08140913      -1.77861171       0.32196753
15
Frame=8 idx=009080 GeodesicLength=0.4458733283899487 rxn_smarts="[C:1]([n:2]1[c:3]([H:11])[c:4]([H:12])[c:5]([C:6]([H:13])([H:14])[H:15])[n:7]1)([H:8])([H:9])[H:10]>>[C:1](=[N+:2]1[C:3]([H:11])=[C:4]([H:12])[C@:5]([C:6]([H:13])([H:14])[H:15])([H:10])[N-:7]1)([H:8])[H:9]"
C        2.12441508      -0.52717311       0.14727061
N        1.20511596      -0.06814308      -0.77379733
C        0.79939640       1.28622042      -0.67630591
C       -0.42288251       1.26024307      -0.12955619
C       -0.69599172      -0.17662733       0.08592055
C       -2.09723778      -0.68657298       0.26035282
N        0.10705931      -0.84515563      -0.81577105
H        2.96708031       0.13886434       0.29624263
H        2.33739263      -1.58374978       0.04640688
H        0.50778794      -0.49522502       1.16477591
H        1.55058920       2.05795926      -0.73498120
H       -1.01298626       2.09198867       0.21947011
H       -2.73465892      -0.40343679      -0.58002824
H       -2.54532841      -0.27528057       1.16627326
H       -2.08975121      -1.77391146       0.32372715
15
Frame=9 idx=009080 GeodesicLength=0.5013326704357325 rxn_smarts="[C:1]([n:2]1[c:3]([H:11])[c:4]([H:12])[c:5]([C:6]([H:13])([H:14])[H:15])[n:7]1)([H:8])([H:9])[H:10]>>[C:1](=[N+:2]1[C:3]([H:11])=[C:4]([H:12])[C@:5]([C:6]([H:13])([H:14])[H:15])([H:10])[N-:7]1)([H:8])[H:9]"
C        2.13121940      -0.53021755       0.14926066
N        1.20277684      -0.07202200      -0.76626750
C        0.79527430       1.28127684      -0.67972689
C       -0.42954569       1.25955510      -0.13413567
C       -0.69890809      -0.17399534       0.10011592
C       -2.10367816      -0.68187349       0.25943868
N        0.10260427      -0.84433997      -0.80640197
H        2.96521088       0.14714086       0.29463797
H        2.36575351      -1.57956340       0.02234656
H        0.52776542      -0.51405920       1.18254494
H        1.54993790       2.05047864      -0.72909381
H       -1.01563182       2.09574972       0.21108772
H       -2.73274583      -0.40186103      -0.58830347
H       -2.56211918      -0.26718090       1.15870832
H       -2.09791375      -1.76908828       0.32578855
15
Frame=10 idx=009080 GeodesicLength=0.5567346216463416 rxn_smarts="[C:1]([n:2]1[c:3]([H:11])[c:4]([H:12])[c:5]([C:6]([H:13])([H:14])[H:15])[n:7]1)([H:8])([H:9])[H:10]>>[C:1](=[N+:2]1[C:3]([H:11])=[C:4]([H:12])[C@:5]([C:6]([H:13])([H:14])[H:15])([H:10])[N-:7]1)([H:8])[H:9]"
C        2.13802134      -0.53349760       0.15114885
N        1.20039747      -0.07592772      -0.75857933
C        0.79125954       1.27627204      -0.68303928
C       -0.43633242       1.25889634      -0.13914809
C       -0.70196666      -0.17106346       0.11414369
C       -2.11002950      -0.67707182       0.25860908
N        0.09808702      -0.84348900      -0.79696543
H        2.96292061       0.15521377       0.29372312
H        2.39396139      -1.57446669      -0.00211099
H        0.54806231      -0.53384672       1.20005393
H        1.54926126       2.04293607      -0.72307998
H       -1.01822706       2.09956544       0.20237167
H       -2.73083714      -0.40050057      -0.59637232
H       -2.57868427      -0.25888304       1.15107247
H       -2.10589390      -1.76413704       0.32817260
15
Frame=11 idx=009080 GeodesicLength=0.6120810007438963 rxn_smarts="[C:1]([n:2]1[c:3]([H:11])[c:4]([H:12])[c:5]([C:6]([H:13])([H:14])[H:15])[n:7]1)([H:8])([H:9])[H:10]>>[C:1](=[N+:2]1[C:3]([H:11])=[C:4]([H:12])[C@:5]([C:6]([H:13])([H:14])[H:15])([H:10])[N-:7]1)([H:8])[H:9]"
C        2.14482420      -0.53701498       0.15292747
N        1.19797968      -0.07985584      -0.75072968
C        0.78735748       1.27121154      -0.68624726
C       -0.44323652       1.25826772      -0.14460479
C       -0.70516789      -0.16781660       0.12799249
C       -2.11629368      -0.67216397       0.25787715
N        0.09350916      -0.84259728      -0.78746557
H        2.96020265       0.16307506       0.29353623
H        2.42200905      -1.56842514      -0.02696055
H        0.56869038      -0.55466642       1.21726920
H        1.54856603       2.03533759      -0.71691890
H       -1.02078799       2.10344120       0.19325843
H       -2.72894637      -0.39935902      -0.60421802
H       -2.59501585      -0.25038217       1.14338394
H       -2.11369033      -1.75905169       0.33089986
15
Frame=12 idx=009080 GeodesicLength=0.6673793844386284 rxn_smarts="[C:1]([n:2]1[c:3]([H:11])[c:4]([H:12])[c:5]([C:6]([H:13])([H:14])[H:15])[n:7]1)([H:8])([H:9])[H:10]>>[C:1](=[N+:2]1[C:3]([H:11])=[C:4]([H:12])[C@:5]([C:6]([H:13])([H:14])[H:15])([H:10])[N-:7]1)([H:8])[H:9]"
C        2.15163214      -0.54077314       0.15458909
N        1.19552548      -0.08380293      -0.74271581
C        0.78357309       1.26610242      -0.68935693
C       -0.45025098       1.25767196      -0.15051648
C       -0.70851153      -0.16424003       0.14165353
C       -2.12247315      -0.66714520       0.25725677
N        0.08887277      -0.84166192      -0.77790547
H        2.95704694       0.17071758       0.29412184
H        2.44989455      -1.56140354      -0.05220122
H        0.58966324      -0.57660552       1.23415726
H        1.54785720       2.02769186      -0.71059323
H       -1.02333237       2.10738502       0.18368132
H       -2.72708532      -0.39843885      -0.61182624
H       -2.61110924      -0.24167061       1.13566200
H       -2.12130283      -1.75382710       0.33399358
15
Frame=13 idx=009080 GeodesicLength=0.7226484187431983 rxn_smarts="[C:1]([n:2]1[c:3]([H:11])[c:4]([H:12])[c:5]([C:6]([H:13])([H:14])[H:15])[n:7]1)([H:8])([H:9])[H:10]>>[C:1](=[N+:2]1[C:3]([H:11])=[C:4]([H:12])[C@:5]([C:6]([H:13])([H:14])[H:15])([H:10])[N-:7]1)([H:8])[H:9]"
C        2.15845184      -0.54478086       0.15612710
N        1.19304783      -0.08776900      -0.73454212
C        0.77992132       1.26096445      -0.69238711
C       -0.45736618       1.25712532      -0.15689717
C       -0.71200091      -0.16032109       0.15512232
C       -2.12858036      -0.66201764       0.25676625
N        0.08418817      -0.84069336      -0.76829136
H        2.95344096       0.17814085       0.29553395
H        2.47763376      -1.55337579      -0.07783732
H        0.61097976      -0.59976722       1.25069141
H        1.54715095       2.02003012      -0.70410237
H       -1.02587476       2.11142992       0.17358145
H       -2.72526554      -0.39774474      -0.61918615
H       -2.62698160      -0.23274282       1.12793870
H       -2.12874522      -1.74847814       0.33748240
15
Frame=14 idx=009080 GeodesicLength=0.7778155145855372 rxn_smarts="[C:1]([n:2]1[c:3]([H:11])[c:4]([H:12])[c:5]([C:6]([H:13])([H:14])[H:15])[n:7]1)([H:8])([H:9])[H:10]>>[C:1](=[N+:2]1[C:3]([H:11])=[C:4]([H:12])[C@:5]([C:6]([H:13])([H:14])[H:15])([H:10])[N-:7]1)([H:8])[H:9]"
C        2.16528700      -0.54899078       0.15751838
N        1.19051743      -0.09173703      -0.72618141
C        0.77637606       1.25575771      -0.69531434
C       -0.46458179       1.25657491      -0.16375026
C       -0.71562487      -0.15603681       0.16839035
C       -2.13459653      -0.65675678       0.25640105
N        0.07943351      -0.83964539      -0.75859804
H        2.94941433       0.18530384       0.29770460
H        2.50513432      -1.54424218      -0.10374470
H        0.63270922      -0.62420393       1.26676069
H        1.54641269       2.01228694      -0.69737411
H       -1.02840854       2.11549037       0.16293094
H       -2.72348806      -0.39729222      -0.62628323
H       -2.64259622      -0.22357679       1.12016495
H       -2.13598855      -1.74293186       0.34137514
15
Frame=15 idx=009080 GeodesicLength=0.8329464779211964 rxn_smarts="[C:1]([n:2]1[c:3]([H:11])[c:4]([H:12])[c:5]([C:6]([H:13])([H:14])[H:15])[n:7]1)([H:8])([H:9])[H:10]>>[C:1](=[N+:2]1[C:3]([H:11])=[C:4]([H:12])[C@:5]([C:6]([H:13])([H:14])[H:15])([H:10])[N-:7]1)([H:8])[H:9]"
C        2.17214086      -0.55345669       0.15876584
N        1.18794355      -0.09572671      -0.71762217
C        0.77295839       1.25048482      -0.69814813
C       -0.47186632       1.25603210      -0.17105508
C       -0.71938333      -0.15138109       0.18146967
C       -2.14053872      -0.65134170       0.25619408
N        0.07461250      -0.83854563      -0.74881137
H        2.94485259       0.19223951       0.30089626
H        2.53256010      -1.53391700      -0.13016656
H        0.65485238      -0.65008827       1.28235550
H        1.54566701       2.00446570      -0.69044590
H       -1.03099664       2.11960001       0.15153724
H       -2.72176580      -0.39705433      -0.63309348
H       -2.65796704      -0.21413335       1.11238686
H       -2.14306953      -1.73717737       0.34573724
15
Frame=16 idx=009080 GeodesicLength=0.8880619691250907 rxn_smarts="[C:1]([n:2]1[c:3]([H:11])[c:4]([H:12])[c:5]([C:6]([H:13])([H:14])[H:15])[n:7]1)([H:8])([H:9])[H:10]>>[C:1](=[N+:2]1[C:3]([H:11])=[C:4]([H:12])[C@:5]([C:6]([H:13])([H:14])[H:15])([H:10])[N-:7]1)([H:8])[H:9]"
C        2.17903153      -0.55817341       0.15985337
N        1.18534296      -0.09972999      -0.70887486
C        0.76968072       1.24518342      -0.70090622
C       -0.47921637       1.25552385      -0.17882437
C       -0.72327803      -0.14633969       0.19436675
C       -2.14641972      -0.64578192       0.25616326
N        0.06974172      -0.83740327      -0.73893936
H        2.93978858       0.19891440       0.30507022
H        2.55986685      -1.52238551      -0.15700171
H        0.67742649      -0.67753918       1.29742431
H        1.54492328       1.99662617      -0.68329490
H       -1.03366316       2.12380560       0.13935844
H       -2.72009474      -0.39705682      -0.63962459
H       -2.67313365      -0.20439922       1.10462563
H       -2.14999647      -1.73124446       0.35060405
