15
Frame=0 idx=002540 GeodesicLength=0.0 rxn_smarts="[C:1]([C:2]([N:3]([C:4](=[O:5])[C:6]([H:13])([H:14])[H:15])[H:12])([H:10])[H:11])([H:7])([H:8])[H:9]>>[C:1]([O+:5]=[C:4]([N:3]([C-:2]([H:10])[H:11])[H:12])[C:6]([H:13])([H:14])[H:15])([H:7])([H:8])[H:9]"
C       -1.67571156       0.30953873       0.96560436
C       -1.06626610      -0.51876202      -1.31122225
N        0.25922943      -0.20825161      -1.10089581
C        0.74942306      -0.26248432       0.13135263
O       -0.05166614      -0.65633838       1.03002321
C        2.11811845       0.24483142       0.44673510
H       -2.55660035      -0.27581381       0.74623660
H       -1.65161695       1.26417233       0.45546359
H       -1.47618298       0.39545303       2.02626513
H       -1.38683950      -1.47349119      -0.92150722
H       -1.44517064      -0.22702194      -2.28275221
H        0.78389315       0.28150441      -1.80786264
H        2.61231307       0.65377333      -0.43649927
H        2.74430440      -0.55169971       0.85165478
H        2.04277260       1.02458972       1.20740400
15
Frame=1 idx=002540 GeodesicLength=0.04635908587329368 rxn_smarts="[C:1]([C:2]([N:3]([C:4](=[O:5])[C:6]([H:13])([H:14])[H:15])[H:12])([H:10])[H:11])([H:7])([H:8])[H:9]>>[C:1]([O+:5]=[C:4]([N:3]([C-:2]([H:10])[H:11])[H:12])[C:6]([H:13])([H:14])[H:15])([H:7])([H:8])[H:9]"
C       -1.67398705       0.30645731       0.95042316
C       -1.07010716      -0.52158222      -1.29874880
N        0.25899768      -0.21544678      -1.09492006
C        0.75702782      -0.26946942       0.13503983
O       -0.03966480      -0.65782116       1.04158694
C        2.12426071       0.24757429       0.44177525
H       -2.57368500      -0.24330844       0.71249602
H       -1.63576747       1.27932180       0.47511596
H       -1.50842891       0.36223110       2.01936081
H       -1.38303719      -1.48066607      -0.91268465
H       -1.44930095      -0.23179445      -2.27073049
H        0.77578383       0.28469948      -1.80031421
H        2.61123929       0.65837724      -0.44455338
H        2.75580802      -0.54628240       0.84389966
H        2.05086118       1.02770972       1.20225397
15
Frame=2 idx=002540 GeodesicLength=0.09269276604704071 rxn_smarts="[C:1]([C:2]([N:3]([C:4](=[O:5])[C:6]([H:13])([H:14])[H:15])[H:12])([H:10])[H:11])([H:7])([H:8])[H:9]>>[C:1]([O+:5]=[C:4]([N:3]([C-:2]([H:10])[H:11])[H:12])[C:6]([H:13])([H:14])[H:15])([H:7])([H:8])[H:9]"
C       -1.67260417       0.30334358       0.93547986
C       -1.07383354      -0.52450405      -1.28634300
N        0.25863535      -0.22213858      -1.08876958
C        0.76446388      -0.27584490       0.13885147
O       -0.02770966      -0.65853482       1.05332806
C        2.13040640       0.25027173       0.43673791
H       -2.58962173      -0.20957279       0.67873516
H       -1.62065470       1.29320795       0.49611865
H       -1.54104519       0.32840278       2.01072379
H       -1.37923565      -1.48762826      -0.90349908
H       -1.45320546      -0.23706557      -2.25892431
H        0.76777580       0.28769026      -1.79268540
H        2.61018558       0.66274529      -0.45268617
H        2.76703746      -0.54116511       0.83588202
H        2.05940563       1.03079250       1.19705064
15
Frame=3 idx=002540 GeodesicLength=0.13897160420171084 rxn_smarts="[C:1]([C:2]([N:3]([C:4](=[O:5])[C:6]([H:13])([H:14])[H:15])[H:12])([H:10])[H:11])([H:7])([H:8])[H:9]>>[C:1]([O+:5]=[C:4]([N:3]([C-:2]([H:10])[H:11])[H:12])[C:6]([H:13])([H:14])[H:15])([H:7])([H:8])[H:9]"
C       -1.67151428       0.30026843       0.92075827
C       -1.07749392      -0.52751296      -1.27404692
N        0.25813150      -0.22841194      -1.08247078
C        0.77171841      -0.28170409       0.14277928
O       -0.01583578      -0.65854138       1.06522832
C        2.13650742       0.25294255       0.43166469
H       -2.60425715      -0.17478072       0.64505431
H       -1.60625288       1.30587707       0.51840116
H       -1.57379134       0.29404551       2.00033766
H       -1.37553185      -1.49437573      -0.89400571
H       -1.45693424      -0.24273289      -2.24735901
H        0.75988105       0.29042232      -1.78500831
H        2.60911682       0.66689805      -0.46085417
H        2.77796736      -0.53628319       0.82772086
H        2.06828888       1.03388896       1.19180034
15
Frame=4 idx=002540 GeodesicLength=0.18523963051852324 rxn_smarts="[C:1]([C:2]([N:3]([C:4](=[O:5])[C:6]([H:13])([H:14])[H:15])[H:12])([H:10])[H:11])([H:7])([H:8])[H:9]>>[C:1]([O+:5]=[C:4]([N:3]([C-:2]([H:10])[H:11])[H:12])[C:6]([H:13])([H:14])[H:15])([H:7])([H:8])[H:9]"
C       -1.67074858       0.29729415       0.90621469
C       -1.08108716      -0.53062946      -1.26183994
N        0.25749281      -0.23426710      -1.07600052
C        0.77877712      -0.28701042       0.14684859
O       -0.00406652      -0.65777106       1.07732473
C        2.14259635       0.25555935       0.42653719
H       -2.61749516      -0.13895514       0.61148750
H       -1.59267309       1.31733421       0.54198573
H       -1.60674426       0.25913124       1.98809830
H       -1.37187815      -1.50094720      -0.88416129
H       -1.46048182      -0.24885614      -2.23602357
H        0.75203665       0.29305158      -1.77723909
H        2.60807857       0.67077286      -0.46909367
H        2.78860506      -0.53169682       0.81939618
H        2.07758817       1.03698994       1.18646518
15
Frame=5 idx=002540 GeodesicLength=0.23155181257038351 rxn_smarts="[C:1]([C:2]([N:3]([C:4](=[O:5])[C:6]([H:13])([H:14])[H:15])[H:12])([H:10])[H:11])([H:7])([H:8])[H:9]>>[C:1]([O+:5]=[C:4]([N:3]([C-:2]([H:10])[H:11])[H:12])[C:6]([H:13])([H:14])[H:15])([H:7])([H:8])[H:9]"
C       -1.67028772       0.29452364       0.89180410
C       -1.08462876      -0.53388441      -1.24971519
N        0.25671438      -0.23973256      -1.06935854
C        0.78563000      -0.29177311       0.15107057
O        0.00758254      -0.65616511       1.08962243
C        2.14866233       0.25810341       0.42135758
H       -2.62918780      -0.10219333       0.57798888
H       -1.57990885       1.32768892       0.56687849
H       -1.63989054       0.22361758       1.97398377
H       -1.36826468      -1.50737327      -0.87394528
H       -1.46387145      -0.25549715      -2.22490428
H        0.74415984       0.29568080      -1.76932390
H        2.60704072       0.67435402      -0.47740040
H        2.79893649      -0.52742424       0.81090735
H        2.08731350       1.04007480       1.18103443
15
Frame=6 idx=002540 GeodesicLength=0.2778556952725946 rxn_smarts="[C:1]([C:2]([N:3]([C:4](=[O:5])[C:6]([H:13])([H:14])[H:15])[H:12])([H:10])[H:11])([H:7])([H:8])[H:9]>>[C:1]([O+:5]=[C:4]([N:3]([C-:2]([H:10])[H:11])[H:12])[C:6]([H:13])([H:14])[H:15])([H:7])([H:8])[H:9]"
C       -1.67005532       0.29201480       0.87753777
C       -1.08814394      -0.53723086      -1.23770004
N        0.25579768      -0.24488394      -1.06256797
C        0.79226741      -0.29608323       0.15543046
O        0.01907701      -0.65381376       1.10210051
C        2.15465760       0.26059643       0.41615477
H       -2.63926367      -0.06464148       0.54474610
H       -1.56804308       1.33691877       0.59302975
H       -1.67299153       0.18763516       1.95790811
H       -1.36476477      -1.51362097      -0.86340866
H       -1.46711125      -0.26252154      -2.21401473
H        0.73631985       0.29817632      -1.76133248
H        2.60597601       0.67767747      -0.48574338
H        2.80894969      -0.52340733       0.80233479
H        2.09732834       1.04318415       1.17552499
15
Frame=7 idx=002540 GeodesicLength=0.324208701306971 rxn_smarts="[C:1]([C:2]([N:3]([C:4](=[O:5])[C:6]([H:13])([H:14])[H:15])[H:12])([H:10])[H:11])([H:7])([H:8])[H:9]>>[C:1]([O+:5]=[C:4]([N:3]([C-:2]([H:10])[H:11])[H:12])[C:6]([H:13])([H:14])[H:15])([H:7])([H:8])[H:9]"
C       -1.67001763       0.28983137       0.86335830
C       -1.09164645      -0.54067525      -1.22577523
N        0.25475016      -0.24974821      -1.05560364
C        0.79869168      -0.29996990       0.15994084
O        0.03041275      -0.65070863       1.11476153
C        2.16058622       0.26301933       0.41092524
H       -2.64760663      -0.02636022       0.51184427
H       -1.55714687       1.34497481       0.62042414
H       -1.70604327       0.15124244       1.93970111
H       -1.36137795      -1.51969831      -0.85253282
H       -1.47022732      -0.26993051      -2.20332000
H        0.72844719       0.30065530      -1.75318434
H        2.60489224       0.68069770      -0.49412384
H        2.81865311      -0.51964148       0.79369200
H        2.10763279       1.04631156       1.16989245
15
Frame=8 idx=002540 GeodesicLength=0.37060882097559306 rxn_smarts="[C:1]([C:2]([N:3]([C:4](=[O:5])[C:6]([H:13])([H:14])[H:15])[H:12])([H:10])[H:11])([H:7])([H:8])[H:9]>>[C:1]([O+:5]=[C:4]([N:3]([C-:2]([H:10])[H:11])[H:12])[C:6]([H:13])([H:14])[H:15])([H:7])([H:8])[H:9]"
C       -1.67010745       0.28807171       0.84926596
C       -1.09514740      -0.54421327      -1.21395427
N        0.25356264      -0.25438735      -1.04848472
C        0.80488796      -0.30350243       0.16460433
O        0.04154825      -0.64686798       1.12760237
C        2.16639672       0.26537755       0.40568304
H       -2.65419723       0.01244244       0.47930939
H       -1.54707697       1.35197495       0.64902972
H       -1.73891845       0.11448636       1.91937847
H       -1.35813711      -1.52560997      -0.84133870
H       -1.47321703      -0.27770574      -2.19283307
H        0.72051959       0.30311403      -1.74488139
H        2.60372587       0.68345741      -0.50252897
H        2.82802007      -0.51610113       0.78500436
H        2.11814055       1.04946342       1.16414347
15
Frame=9 idx=002540 GeodesicLength=0.41706647151698895 rxn_smarts="[C:1]([C:2]([N:3]([C:4](=[O:5])[C:6]([H:13])([H:14])[H:15])[H:12])([H:10])[H:11])([H:7])([H:8])[H:9]>>[C:1]([O+:5]=[C:4]([N:3]([C-:2]([H:10])[H:11])[H:12])[C:6]([H:13])([H:14])[H:15])([H:7])([H:8])[H:9]"
C       -1.67028875       0.28675589       0.83527220
C       -1.09867744      -0.54782189      -1.20227788
N        0.25224746      -0.25879688      -1.04122340
C        0.81086590      -0.30668000       0.16944760
O        0.05250145      -0.64234182       1.14068245
C        2.17214393       0.26765048       0.40044845
H       -2.65890662       0.05165506       0.44740330
H       -1.53830321       1.35776592       0.67875286
H       -1.77149254       0.07763966       1.89677024
H       -1.35507225      -1.53139253      -0.82986670
H       -1.47613295      -0.28574663      -2.18260594
H        0.71255072       0.30558938      -1.73646012
H        2.60256524       0.68590209      -0.51097708
H        2.83707551      -0.51283371       0.77631834
H        2.12892354       1.05265499       1.15831567
15
Frame=10 idx=002540 GeodesicLength=0.46370047193205477 rxn_smarts="[C:1]([C:2]([N:3]([C:4](=[O:5])[C:6]([H:13])([H:14])[H:15])[H:12])([H:10])[H:11])([H:7])([H:8])[H:9]>>[C:1]([O+:5]=[C:4]([N:3]([C-:2]([H:10])[H:11])[H:12])[C:6]([H:13])([H:14])[H:15])([H:7])([H:8])[H:9]"
C       -1.67050809       0.28596756       0.82134996
C       -1.10221626      -0.55145927      -1.19063307
N        0.25081700      -0.26300137      -1.03380006
C        0.81663249      -0.30951347       0.17439860
O        0.06328999      -0.63708613       1.15381175
C        2.17775126       0.26982547       0.39519885
H       -2.66183390       0.09097845       0.41588610
H       -1.53062719       1.36254850       0.70961077
H       -1.80369238       0.04065803       1.87198355
H       -1.35212521      -1.53690919      -0.81806722
H       -1.47896912      -0.29403205      -2.17241250
H        0.70455782       0.30798021      -1.72784407
H        2.60130327       0.68799907      -0.51940596
H        2.84578910      -0.50979305       0.76764494
H        2.13983121       1.05583725       1.15227835
15
Frame=11 idx=002540 GeodesicLength=0.510317135245536 rxn_smarts="[C:1]([C:2]([N:3]([C:4](=[O:5])[C:6]([H:13])([H:14])[H:15])[H:12])([H:10])[H:11])([H:7])([H:8])[H:9]>>[C:1]([O+:5]=[C:4]([N:3]([C-:2]([H:10])[H:11])[H:12])[C:6]([H:13])([H:14])[H:15])([H:7])([H:8])[H:9]"
C       -1.67060468       0.28570496       0.80757256
C       -1.10578107      -0.55505547      -1.17912153
N        0.24928527      -0.26716308      -1.02628672
C        0.82217179      -0.31222117       0.17944692
O        0.07383866      -0.63137703       1.16701566
C        2.18313290       0.27196279       0.38998504
H       -2.66289627       0.13036281       0.38517399
H       -1.52412752       1.36612285       0.74147044
H       -1.83517031       0.00390159       1.84497710
H       -1.34947056      -1.54214102      -0.80607745
H       -1.48169385      -0.30231864      -2.16237226
H        0.69666258       0.31005980      -1.71919820
H        2.59990360       0.68985901      -0.52780098
H        2.85414563      -0.50682038       0.75910156
H        2.15060383       1.05912296       1.14611388
15
Frame=12 idx=002540 GeodesicLength=0.5570057775159264 rxn_smarts="[C:1]([C:2]([N:3]([C:4](=[O:5])[C:6]([H:13])([H:14])[H:15])[H:12])([H:10])[H:11])([H:7])([H:8])[H:9]>>[C:1]([O+:5]=[C:4]([N:3]([C-:2]([H:10])[H:11])[H:12])[C:6]([H:13])([H:14])[H:15])([H:7])([H:8])[H:9]"
C       -1.67054333       0.28596798       0.79394974
C       -1.10943073      -0.55856221      -1.16778317
N        0.24765750      -0.27127991      -1.01869557
C        0.82752223      -0.31481994       0.18460352
O        0.08421496      -0.62531771       1.18029062
C        2.18833574       0.27404610       0.38485039
H       -2.66217144       0.16936733       0.35543262
H       -1.51904783       1.36847626       0.77403747
H       -1.86573088      -0.03218523       1.81585966
H       -1.34715551      -1.54710111      -0.79399697
H       -1.48443573      -0.31042946      -2.15250971
H        0.68889254       0.31181463      -1.71054638
H        2.59840488       0.69149489      -0.53611571
H        2.86219725      -0.50395106       0.75074769
H        2.16129034       1.06247943       1.13987581
15
Frame=13 idx=002540 GeodesicLength=0.6036479864813163 rxn_smarts="[C:1]([C:2]([N:3]([C:4](=[O:5])[C:6]([H:13])([H:14])[H:15])[H:12])([H:10])[H:11])([H:7])([H:8])[H:9]>>[C:1]([O+:5]=[C:4]([N:3]([C-:2]([H:10])[H:11])[H:12])[C:6]([H:13])([H:14])[H:15])([H:7])([H:8])[H:9]"
C       -1.67041040       0.28676124       0.78050713
C       -1.11315460      -0.56213824      -1.15679446
N        0.24591916      -0.27517289      -1.01111462
C        0.83264490      -0.31712376       0.18998717
O        0.09439986      -0.61875202       1.19391689
C        2.19354669       0.27590635       0.37985962
H       -2.65991403       0.20698681       0.32692144
H       -1.51603132       1.36982046       0.80638219
H       -1.89504772      -0.06657678       1.78520241
H       -1.34503016      -1.55215093      -0.78194665
H       -1.48725177      -0.31843717      -2.14312363
H        0.68097810       0.31403173      -1.70178907
H        2.59689314       0.69310413      -0.54432226
H        2.86995289      -0.50175959       0.74221947
H        2.17250526       1.06550064       1.13409437
15
Frame=14 idx=002540 GeodesicLength=0.650558311237542 rxn_smarts="[C:1]([C:2]([N:3]([C:4](=[O:5])[C:6]([H:13])([H:14])[H:15])[H:12])([H:10])[H:11])([H:7])([H:8])[H:9]>>[C:1]([O+:5]=[C:4]([N:3]([C-:2]([H:10])[H:11])[H:12])[C:6]([H:13])([H:14])[H:15])([H:7])([H:8])[H:9]"
C       -1.66996192       0.28797661       0.76722216
C       -1.11695677      -0.56532923      -1.14574718
N        0.24413682      -0.27916902      -1.00336691
C        0.83764865      -0.31947501       0.19530646
O        0.10451846      -0.61208397       1.20715992
C        2.19841180       0.27780690       0.37490057
H       -2.65603825       0.24437760       0.29925075
H       -1.51422654       1.36966928       0.83963855
H       -1.92330097      -0.10047564       1.75235847
H       -1.34331785      -1.55644308      -0.76978629
H       -1.49007266      -0.32590212      -2.13342525
H        0.67351924       0.31516170      -1.69309304
H        2.59520985       0.69422834      -0.55237666
H        2.87740207      -0.49917650       0.73423312
H        2.18302808       1.06883413       1.12772534
15
Frame=15 idx=002540 GeodesicLength=0.6973104266569078 rxn_smarts="[C:1]([C:2]([N:3]([C:4](=[O:5])[C:6]([H:13])([H:14])[H:15])[H:12])([H:10])[H:11])([H:7])([H:8])[H:9]>>[C:1]([O+:5]=[C:4]([N:3]([C-:2]([H:10])[H:11])[H:12])[C:6]([H:13])([H:14])[H:15])([H:7])([H:8])[H:9]"
C       -1.66919937       0.28961367       0.75421451
C       -1.12065929      -0.56823376      -1.13477929
N        0.24240222      -0.28324979      -0.99555945
C        0.84244985      -0.32188490       0.20058227
O        0.11438399      -0.60534854       1.22018547
C        2.20288020       0.27964073       0.36995033
H       -2.65061906       0.28087860       0.27285283
H       -1.51395397       1.36806760       0.87309932
H       -1.95029194      -0.13288666       1.71792652
H       -1.34183830      -1.56017845      -0.75764185
H       -1.49262822      -0.33283362      -2.12363849
H        0.66645159       0.31566795      -1.68440588
H        2.59327245       0.69513897      -0.56030348
H        2.88441186      -0.49652536       0.72633029
H        2.19293801       1.07213358       1.12118690
15
Frame=16 idx=002540 GeodesicLength=0.7441353375155564 rxn_smarts="[C:1]([C:2]([N:3]([C:4](=[O:5])[C:6]([H:13])([H:14])[H:15])[H:12])([H:10])[H:11])([H:7])([H:8])[H:9]>>[C:1]([O+:5]=[C:4]([N:3]([C-:2]([H:10])[H:11])[H:12])[C:6]([H:13])([H:14])[H:15])([H:7])([H:8])[H:9]"
C       -1.66820877       0.29161331       0.74148695
C       -1.12450814      -0.57095777      -1.12411600
N        0.24058738      -0.28729390      -0.98778450
C        0.84711752      -0.32421925       0.20596947
O        0.12418793      -0.59853596       1.23329566
C        2.20727865       0.28138958       0.36517137
H       -2.64407165       0.31599488       0.24762599
H       -1.51548657       1.36530793       0.90624935
H       -1.97582166      -0.16350396       1.68242480
H       -1.34075409      -1.56372745      -0.74568176
H       -1.49536258      -0.33922557      -2.11416288
H        0.65957964       0.31590880      -1.67587687
H        2.59131750       0.69595906      -0.56807200
H        2.89122297      -0.49411489       0.71864234
H        2.20292187       1.07540520       1.11482807
