19
Frame=0 idx=009436 GeodesicLength=0.0 rxn_smarts="[C:1]([C:2]([O:3][C@@:4]1([H:13])[C:5]([H:14])([H:15])[C@:6]1([C:7]([H:17])([H:18])[H:19])[H:16])([H:11])[H:12])([H:8])([H:9])[H:10]>>[C:1]([C:2]([H:10])([H:11])[H:12])([C:5]([C@:6]([C:4](=[O:3])[H:13])([C:7]([H:17])([H:18])[H:19])[H:16])([H:14])[H:15])([H:8])[H:9]"
C        1.61174692       0.08979091       1.20740750
C        2.25840085      -0.17325592      -0.02702255
O        0.58060048      -0.60570721      -1.24842095
C       -0.27367297      -0.88963479      -0.33873505
C       -0.74554921       0.32000711       0.80517140
C       -1.63300478      -0.28968593      -0.24442130
C       -2.11327876       0.57253448      -1.38261339
H        1.50178662      -0.70174244       1.93468961
H        1.47865682       1.10726228       1.54063700
H        2.99953197       0.09332361       0.97904066
H        2.56555204      -1.17471215      -0.28046943
H        2.47303207       0.62930931      -0.71466876
H       -0.17060972      -1.83333151       0.22214932
H       -0.48286496       1.34892493       0.59179971
H       -0.97598720       0.10849441       1.84323106
H       -2.38082011      -0.97155050       0.15105712
H       -2.51827968      -0.04182758      -2.18968194
H       -2.89173038       1.26516903      -1.05400144
H       -1.28351006       1.14663195      -1.79514859
19
Frame=1 idx=009436 GeodesicLength=0.09485900681399803 rxn_smarts="[C:1]([C:2]([O:3][C@@:4]1([H:13])[C:5]([H:14])([H:15])[C@:6]1([C:7]([H:17])([H:18])[H:19])[H:16])([H:11])[H:12])([H:8])([H:9])[H:10]>>[C:1]([C:2]([H:10])([H:11])[H:12])([C:5]([C@:6]([C:4](=[O:3])[H:13])([C:7]([H:17])([H:18])[H:19])[H:16])([H:14])[H:15])([H:8])[H:9]"
C        1.61788462       0.11133108       1.20115924
C        2.23765635      -0.16393484      -0.04961654
O        0.57100718      -0.69291893      -1.22748732
C       -0.29722776      -0.93191069      -0.32041979
C       -0.75503845       0.29050883       0.82644978
C       -1.63772548      -0.28923487      -0.24530080
C       -2.07394794       0.59212380      -1.38662084
H        1.54624138      -0.66961833       1.94508457
H        1.48273675       1.13380673       1.52018196
H        3.00275104       0.14630813       0.93836946
H        2.57977123      -1.16099842      -0.27921809
H        2.40294123       0.63200204      -0.75905771
H       -0.21462120      -1.87418171       0.24573581
H       -0.52205378       1.33390693       0.65309440
H       -0.99159762       0.05133338       1.85745698
H       -2.41042840      -0.95534359       0.12933049
H       -2.46043466      -0.00663895      -2.21399921
H       -2.85217396       1.29055855      -1.07014421
H       -1.22574051       1.16290085      -1.76499818
19
Frame=2 idx=009436 GeodesicLength=0.19035691523264758 rxn_smarts="[C:1]([C:2]([O:3][C@@:4]1([H:13])[C:5]([H:14])([H:15])[C@:6]1([C:7]([H:17])([H:18])[H:19])[H:16])([H:11])[H:12])([H:8])([H:9])[H:10]>>[C:1]([C:2]([H:10])([H:11])[H:12])([C:5]([C@:6]([C:4](=[O:3])[H:13])([C:7]([H:17])([H:18])[H:19])[H:16])([H:14])[H:15])([H:8])[H:9]"
C        1.62253729       0.13528660       1.19280873
C        2.21489589      -0.15585190      -0.07291462
O        0.56183185      -0.77919747      -1.20319638
C       -0.32114856      -0.97446769      -0.30213318
C       -0.76512435       0.25973855       0.84899597
C       -1.64071974      -0.28882308      -0.24605787
C       -2.03070789       0.61185678      -1.38902381
H        1.59015247      -0.63235432       1.95375104
H        1.48427452       1.16325477       1.49471621
H        3.00279600       0.20010106       0.89459000
H        2.59200430      -1.14661996      -0.27897217
H        2.33133955       0.62989827      -0.80385203
H       -0.26092114      -1.91594887       0.26773048
H       -0.56508532       1.31622928       0.71941067
H       -1.00756651      -0.00907265       1.87168810
H       -2.43828921      -0.93812836       0.10604015
H       -2.39743723       0.02927950      -2.23648592
H       -2.80825314       1.31659173      -1.08525284
H       -1.16457877       1.17822777      -1.73184253
19
Frame=3 idx=009436 GeodesicLength=0.28668018009712304 rxn_smarts="[C:1]([C:2]([O:3][C@@:4]1([H:13])[C:5]([H:14])([H:15])[C@:6]1([C:7]([H:17])([H:18])[H:19])[H:16])([H:11])[H:12])([H:8])([H:9])[H:10]>>[C:1]([C:2]([H:10])([H:11])[H:12])([C:5]([C@:6]([C:4](=[O:3])[H:13])([C:7]([H:17])([H:18])[H:19])[H:16])([H:14])[H:15])([H:8])[H:9]"
C        1.62546350       0.16183500       1.18224752
C        2.19045680      -0.14932861      -0.09652837
O        0.55340289      -0.86365543      -1.17585399
C       -0.34526259      -1.01703588      -0.28437451
C       -0.77566911       0.22782329       0.87254457
C       -1.64183350      -0.28846357      -0.24667989
C       -1.98393684       0.63167922      -1.38939539
H        1.63291763      -0.58936586       1.96067229
H        1.48271448       1.19570632       1.46366372
H        2.99960549       0.25423687       0.84813466
H        2.60208591      -1.13213009      -0.27911036
H        2.25951604       0.62255958      -0.84867487
H       -0.30938599      -1.95847519       0.28725245
H       -0.61149527       1.29521298       0.78985328
H       -1.02376501      -0.07232462       1.88553161
H       -2.46392912      -0.92000191       0.08133325
H       -2.32974562       0.06588106      -2.25658284
H       -2.76033105       1.34303976      -1.09854316
H       -1.10080862       1.19280709      -1.69548998
19
Frame=4 idx=009436 GeodesicLength=0.38400572916702164 rxn_smarts="[C:1]([C:2]([O:3][C@@:4]1([H:13])[C:5]([H:14])([H:15])[C@:6]1([C:7]([H:17])([H:18])[H:19])[H:16])([H:11])[H:12])([H:8])([H:9])[H:10]>>[C:1]([C:2]([H:10])([H:11])[H:12])([C:5]([C@:6]([C:4](=[O:3])[H:13])([C:7]([H:17])([H:18])[H:19])[H:16])([H:14])[H:15])([H:8])[H:9]"
C        1.62648273       0.19100792       1.16947731
C        2.16478403      -0.14462346      -0.11999340
O        0.54603033      -0.94546506      -1.14587659
C       -0.36940242      -1.05931066      -0.26767666
C       -0.78646981       0.19497167       0.89676446
C       -1.64098551      -0.28813657      -0.24712685
C       -1.93423358       0.65150490      -1.38737902
H        1.67393119      -0.54030225       1.96585884
H        1.47757719       1.23099557       1.42675080
H        2.99327810       0.30819904       0.79956101
H        2.61000647      -1.11804962      -0.27892538
H        2.18882593       0.60978271      -0.89307734
H       -0.35985850      -2.00153373       0.30340515
H       -0.66046530       1.27033682       0.86312590
H       -1.04000919      -0.13781485       1.89858897
H       -2.48694137      -0.90104653       0.05551472
H       -2.25816161       0.10302521      -2.27373867
H       -2.70898385       1.36967325      -1.10926267
H       -1.03540482       1.20678563      -1.65599056
19
Frame=5 idx=009436 GeodesicLength=0.48246084031017167 rxn_smarts="[C:1]([C:2]([O:3][C@@:4]1([H:13])[C:5]([H:14])([H:15])[C@:6]1([C:7]([H:17])([H:18])[H:19])[H:16])([H:11])[H:12])([H:8])([H:9])[H:10]>>[C:1]([C:2]([H:10])([H:11])[H:12])([C:5]([C@:6]([C:4](=[O:3])[H:13])([C:7]([H:17])([H:18])[H:19])[H:16])([H:14])[H:15])([H:8])[H:9]"
C        1.62547327       0.22265581       1.15461054
C        2.13828161      -0.14185390      -0.14283408
O        0.53993743      -1.02402755      -1.11366617
C       -0.39344595      -1.10100537      -0.25251459
C       -0.79725112       0.16143659       0.92128195
C       -1.63815751      -0.28779087      -0.24732563
C       -1.88227874       0.67120306      -1.38274046
H        1.71269091      -0.48516885       1.96928007
H        1.46849821       1.26865541       1.38408426
H        2.98397961       0.36152411       0.74942821
H        2.61590683      -1.10469685      -0.27774427
H        2.12032989       0.59168793      -0.93656838
H       -0.41220280      -2.04483477       0.31542444
H       -0.71082416       1.24132303       0.93772025
H       -1.05606491      -0.20479568       1.91046658
H       -2.50704136      -0.88127225       0.02903998
H       -2.18367318       0.14048458      -2.28748924
H       -2.65484093       1.39627661      -1.11680997
H       -0.96931709       1.22019899      -1.61364353
19
Frame=6 idx=009436 GeodesicLength=0.5820927788137189 rxn_smarts="[C:1]([C:2]([O:3][C@@:4]1([H:13])[C:5]([H:14])([H:15])[C@:6]1([C:7]([H:17])([H:18])[H:19])[H:16])([H:11])[H:12])([H:8])([H:9])[H:10]>>[C:1]([C:2]([H:10])([H:11])[H:12])([C:5]([C@:6]([C:4](=[O:3])[H:13])([C:7]([H:17])([H:18])[H:19])[H:16])([H:14])[H:15])([H:8])[H:9]"
C        1.62248120       0.25644715       1.13790270
C        2.11141707      -0.14103627      -0.16455627
O        0.53530017      -1.09889313      -1.07961854
C       -0.41729395      -1.14181941      -0.23932425
C       -0.80770771       0.12755126       0.94570856
C       -1.63342059      -0.28734153      -0.24720243
C       -1.82892407       0.69060426      -1.37543649
H        1.74881381      -0.42432584       1.97093243
H        1.45545913       1.30793985       1.33623795
H        2.97207247       0.41371768       0.69835832
H        2.62005271      -1.09224991      -0.27503035
H        2.05492945       0.56863708      -0.97858112
H       -0.46621922      -2.08798760       0.32268871
H       -0.76136682       1.20829381       1.01199333
H       -1.07168939      -0.27239196       1.92085328
H       -2.52405087      -0.86068236       0.00245426
H       -2.10751824       0.17788698      -2.29754110
H       -2.59873814       1.42261172      -1.12080612
H       -0.90359702       1.23303822      -1.56903285
19
Frame=7 idx=009436 GeodesicLength=0.6829170661585929 rxn_smarts="[C:1]([C:2]([O:3][C@@:4]1([H:13])[C:5]([H:14])([H:15])[C@:6]1([C:7]([H:17])([H:18])[H:19])[H:16])([H:11])[H:12])([H:8])([H:9])[H:10]>>[C:1]([C:2]([H:10])([H:11])[H:12])([C:5]([C@:6]([C:4](=[O:3])[H:13])([C:7]([H:17])([H:18])[H:19])[H:16])([H:14])[H:15])([H:8])[H:9]"
C        1.61763788       0.29193655       1.11968996
C        2.08449968      -0.14203303      -0.18475576
O        0.53217640      -1.16993634      -1.04396189
C       -0.44091699      -1.18152363      -0.22840594
C       -0.81752096       0.09363061       0.96968885
C       -1.62689134      -0.28670238      -0.24668169
C       -1.77491810       0.70951324      -1.36559375
H        1.78212968      -0.35846437       1.97076164
H        1.43867932       1.34798394       1.28412028
H        2.95791028       0.46441862       0.64683733
H        2.62276330      -1.08062147      -0.27048011
H        1.99298625       0.54124202      -1.01857648
H       -0.52174301      -2.13056429       0.32484614
H       -0.81090767       1.17164518       1.08454141
H       -1.08665364      -0.33978430       1.92950006
H       -2.53794849      -0.83922462      -0.02367514
H       -2.03084196       0.21482052      -2.30381955
H       -2.54140363       1.44845835      -1.12114897
H       -0.83903699       1.24520542      -1.52288639
19
Frame=8 idx=009436 GeodesicLength=0.7849050141011146 rxn_smarts="[C:1]([C:2]([O:3][C@@:4]1([H:13])[C:5]([H:14])([H:15])[C@:6]1([C:7]([H:17])([H:18])[H:19])[H:16])([H:11])[H:12])([H:8])([H:9])[H:10]>>[C:1]([C:2]([H:10])([H:11])[H:12])([C:5]([C@:6]([C:4](=[O:3])[H:13])([C:7]([H:17])([H:18])[H:19])[H:16])([H:14])[H:15])([H:8])[H:9]"
C        1.61118236       0.32862605       1.10036878
C        2.05775261      -0.14462059      -0.20310961
O        0.53055131      -1.23722726      -1.00677303
C       -0.46431731      -1.21993121      -0.21996108
C       -0.82640336       0.05998001       0.99292120
C       -1.61872634      -0.28579951      -0.24571189
C       -1.72094019       0.72773407      -1.35349336
H        1.81264647      -0.28849297       1.96871752
H        1.41866065       1.38792642       1.22887945
H        2.94188291       0.51333084       0.59525968
H        2.62435666      -1.06958096      -0.26403410
H        1.93451696       0.51023037      -1.05604664
H       -0.57856751      -2.17210177       0.32176892
H       -0.85851551       1.13199656       1.15426623
H       -1.10077491      -0.40625075       1.93624474
H       -2.54881902      -0.81686267      -0.04882778
H       -1.95470671       0.25084936      -2.30646332
H       -2.48352268       1.47361003      -1.11797853
H       -0.77625642       1.25658400      -1.47602719
19
Frame=9 idx=009436 GeodesicLength=0.8880274786491753 rxn_smarts="[C:1]([C:2]([O:3][C@@:4]1([H:13])[C:5]([H:14])([H:15])[C@:6]1([C:7]([H:17])([H:18])[H:19])[H:16])([H:11])[H:12])([H:8])([H:9])[H:10]>>[C:1]([C:2]([H:10])([H:11])[H:12])([C:5]([C@:6]([C:4](=[O:3])[H:13])([C:7]([H:17])([H:18])[H:19])[H:16])([H:14])[H:15])([H:8])[H:9]"
C        1.60340153       0.36604206       1.08035671
C        2.03127689      -0.14852942      -0.21939572
O        0.53033680      -1.30099570      -0.96794294
C       -0.48752398      -1.25689973      -0.21409811
C       -0.83412247       0.02684866       1.01516853
C       -1.60909491      -0.28458929      -0.24427167
C       -1.66752183       0.74509084      -1.33950536
H        1.84054042      -0.21541472       1.96477199
H        1.39604513       1.42705588       1.17172659
H        2.92433598       0.56025595       0.54389135
H        2.62511503      -1.05881395      -0.25584296
H        1.87920761       0.47635665      -1.09057050
H       -0.63646276      -2.21213714       0.31351597
H       -0.90352158       1.09002036       1.22043786
H       -1.11392561      -0.47123609       1.94098018
H       -2.55682929      -0.79358622      -0.07258445
H       -1.87998624       0.28559365      -2.30577263
H       -2.42563774       1.49788918      -1.11160038
H       -0.71563298       1.26704901      -1.42926446
19
Frame=10 idx=009436 GeodesicLength=0.9921900169540954 rxn_smarts="[C:1]([C:2]([O:3][C@@:4]1([H:13])[C:5]([H:14])([H:15])[C@:6]1([C:7]([H:17])([H:18])[H:19])[H:16])([H:11])[H:12])([H:8])([H:9])[H:10]>>[C:1]([C:2]([H:10])([H:11])[H:12])([C:5]([C@:6]([C:4](=[O:3])[H:13])([C:7]([H:17])([H:18])[H:19])[H:16])([H:14])[H:15])([H:8])[H:9]"
C        1.59463217       0.40378852       1.06002194
C        2.00513975      -0.15351220      -0.23344968
O        0.53140051      -1.36148471      -0.92727548
C       -0.51053200      -1.29229566      -0.21089463
C       -0.84052603      -0.00555808       1.03626629
C       -1.59817543      -0.28306502      -0.24237930
C       -1.61512530       0.76145923      -1.32403817
H        1.86605241      -0.14014842       1.95893292
H        1.37163207       1.46485150       1.11374735
H        2.90563258       0.60499277       0.49295770
H        2.62522081      -1.04805720      -0.24612693
H        1.82669689       0.44027409      -1.12179824
H       -0.69508806      -2.25022722       0.30023913
H       -0.94563091       1.04639500       1.28267035
H       -1.12604095      -0.53437229       1.94366271
H       -2.56216973      -0.76947846      -0.09464692
H       -1.80744061       0.31875449      -2.30216190
H       -2.36824363       1.52116091      -1.10238063
H       -0.65743453       1.27652273      -1.38334651
19
Frame=11 idx=009436 GeodesicLength=1.0973014582038065 rxn_smarts="[C:1]([C:2]([O:3][C@@:4]1([H:13])[C:5]([H:14])([H:15])[C@:6]1([C:7]([H:17])([H:18])[H:19])[H:16])([H:11])[H:12])([H:8])([H:9])[H:10]>>[C:1]([C:2]([H:10])([H:11])[H:12])([C:5]([C@:6]([C:4](=[O:3])[H:13])([C:7]([H:17])([H:18])[H:19])[H:16])([H:14])[H:15])([H:8])[H:9]"
C        1.58518879       0.44156241       1.03968437
C        1.97933922      -0.15935313      -0.24517280
O        0.53355490      -1.41896312      -0.88446187
C       -0.53331025      -1.32600778      -0.21038317
C       -0.84553303      -0.03710344       1.05611158
C       -1.58613272      -0.28125343      -0.24007932
C       -1.56408433       0.77676856      -1.30748494
H        1.88948572      -0.06350705       1.95124157
H        1.34617564       1.50101256       1.05584921
H        2.88607126       0.64740337       0.44259647
H        2.62478831      -1.03710679      -0.23516309
H        1.77652992       0.40253319      -1.14948143
H       -0.75405196      -2.28598299       0.28216888
H       -0.98475650       1.00167258       1.34083404
H       -1.13709832      -0.59545351       1.94427216
H       -2.56504650      -0.74468148      -0.11484582
H       -1.73766034       0.35015946      -2.29608699
H       -2.31169835       1.54334518      -1.09069050
H       -0.60176148       1.28495540      -1.33890834
19
Frame=12 idx=009436 GeodesicLength=1.2032572312227132 rxn_smarts="[C:1]([C:2]([O:3][C@@:4]1([H:13])[C:5]([H:14])([H:15])[C@:6]1([C:7]([H:17])([H:18])[H:19])[H:16])([H:11])[H:12])([H:8])([H:9])[H:10]>>[C:1]([C:2]([H:10])([H:11])[H:12])([C:5]([C@:6]([C:4](=[O:3])[H:13])([C:7]([H:17])([H:18])[H:19])[H:16])([H:14])[H:15])([H:8])[H:9]"
C        1.57535897       0.47914538       1.01959790
C        1.95384529      -0.16588698      -0.25450831
O        0.53655779      -1.47364943      -0.83915817
C       -0.55576722      -1.35792831      -0.21256875
C       -0.84913607      -0.06769637       1.07465840
C       -1.57311582      -0.27920830      -0.23743709
C       -1.51465307       0.79100240      -1.29020135
H        1.91115913       0.01383734       1.94176708
H        1.32037142       1.53541309       0.99872737
H        2.86591427       0.68736278       0.39290265
H        2.62385449      -1.02586256      -0.22322520
H        1.72827566       0.36356607      -1.17345245
H       -0.81287472      -2.31907877       0.25957840
H       -1.02099267       0.95629021       1.39497337
H       -1.14712109      -0.65439207       1.94281581
H       -2.56565443      -0.71940956      -0.13312596
H       -1.67111823       0.37975291      -2.28801040
H       -2.25628001       1.56441045      -1.07686085
H       -0.54862369       1.29233171      -1.29647243
19
Frame=13 idx=009436 GeodesicLength=1.3099817488349037 rxn_smarts="[C:1]([C:2]([O:3][C@@:4]1([H:13])[C:5]([H:14])([H:15])[C@:6]1([C:7]([H:17])([H:18])[H:19])[H:16])([H:11])[H:12])([H:8])([H:9])[H:10]>>[C:1]([C:2]([H:10])([H:11])[H:12])([C:5]([C@:6]([C:4](=[O:3])[H:13])([C:7]([H:17])([H:18])[H:19])[H:16])([H:14])[H:15])([H:8])[H:9]"
C        1.56539162       0.51638780       0.99996377
C        1.92860257      -0.17299398      -0.26143092
O        0.54010800      -1.52570440      -0.79099874
C       -0.57775309      -1.38794971      -0.21743120
C       -0.85139729      -0.09727960       1.09190463
C       -1.55925749      -0.27700537      -0.23453315
C       -1.46700860       0.80418303      -1.27249176
H        1.93141835       0.09133298       1.93058992
H        1.29479563       1.56805473       0.94287598
H        2.84537760       0.72476786       0.34393592
H        2.62241301      -1.01430740      -0.21057644
H        1.68152264       0.32370897      -1.19360791
H       -0.87102091      -2.34925981       0.23275662
H       -1.05452828       0.91057683       1.44523855
H       -1.15617597      -0.71117215       1.93931562
H       -2.56417995      -0.69392837      -0.14952882
H       -1.60818229       0.40758353      -2.27837096
H       -2.20217736       1.58435983      -1.06115969
H       -0.49794821       1.29864525      -1.25645144
19
Frame=14 idx=009436 GeodesicLength=1.4173303439432234 rxn_smarts="[C:1]([C:2]([O:3][C@@:4]1([H:13])[C:5]([H:14])([H:15])[C@:6]1([C:7]([H:17])([H:18])[H:19])[H:16])([H:11])[H:12])([H:8])([H:9])[H:10]>>[C:1]([C:2]([H:10])([H:11])[H:12])([C:5]([C@:6]([C:4](=[O:3])[H:13])([C:7]([H:17])([H:18])[H:19])[H:16])([H:14])[H:15])([H:8])[H:9]"
C        1.55549983       0.55317816       0.98089084
C        1.90356902      -0.18060290      -0.26594252
O        0.54382515      -1.57513263      -0.73979978
C       -0.59899865      -1.41595727      -0.22489489
C       -0.85244141      -0.12578625       1.10789751
C       -1.54466747      -0.27473845      -0.23144589
C       -1.42131126       0.81637262      -1.25459592
H        1.95051901       0.16854965       1.91778447
H        1.26999523       1.59900997       0.88858849
H        2.82469125       0.75944406       0.29578939
H        2.62034243      -1.00257667      -0.19741479
H        1.63602442       0.28324793      -1.20989393
H       -0.92780041      -2.37635494       0.20204029
H       -1.08567965       0.86482388       1.49181616
H       -1.16439158      -0.76578733       1.93383027
H       -2.56075991      -0.66859895      -0.16417397
H       -1.54915923       0.43376243      -2.26755391
H       -2.14958318       1.60321616      -1.04377897
H       -0.44967357       1.30393052      -1.21914284
19
Frame=15 idx=009436 GeodesicLength=1.525183342874981 rxn_smarts="[C:1]([C:2]([O:3][C@@:4]1([H:13])[C:5]([H:14])([H:15])[C@:6]1([C:7]([H:17])([H:18])[H:19])[H:16])([H:11])[H:12])([H:8])([H:9])[H:10]>>[C:1]([C:2]([H:10])([H:11])[H:12])([C:5]([C@:6]([C:4](=[O:3])[H:13])([C:7]([H:17])([H:18])[H:19])[H:16])([H:14])[H:15])([H:8])[H:9]"
C        1.54584665       0.58941584       0.96243970
C        1.87868134      -0.18865847      -0.26808180
O        0.54724503      -1.62183325      -0.68555203
C       -0.61917229      -1.44184810      -0.23479743
C       -0.85244880      -0.15313907       1.12271923
C       -1.52943660      -0.27251601      -0.22824416
C       -1.37765631       0.82764051      -1.23669123
H        1.96870596       0.24509761       1.90339894
H        1.24640441       1.62837940       0.83602965
H        2.80405215       0.79122052       0.24856022
H        2.61746924      -0.99087438      -0.18392807
H        1.59158405       0.24248635      -1.22230481
H       -0.98246584      -2.40028475       0.16782742
H       -1.11479144       0.81928801       1.53489313
H       -1.17194518      -0.81820524       1.92644159
H       -2.55551370      -0.64382445      -0.17724098
H       -1.49423297       0.45843798      -2.25587481
H       -2.09862769       1.62099165      -1.02486943
H       -0.40369801       1.30822586      -1.18472515
19
Frame=16 idx=009436 GeodesicLength=1.633415172962482 rxn_smarts="[C:1]([C:2]([O:3][C@@:4]1([H:13])[C:5]([H:14])([H:15])[C@:6]1([C:7]([H:17])([H:18])[H:19])[H:16])([H:11])[H:12])([H:8])([H:9])[H:10]>>[C:1]([C:2]([H:10])([H:11])[H:12])([C:5]([C@:6]([C:4](=[O:3])[H:13])([C:7]([H:17])([H:18])[H:19])[H:16])([H:14])[H:15])([H:8])[H:9]"
C        1.53657137       0.62498235       0.94464387
C        1.85388780      -0.19710865      -0.26793663
O        0.54985056      -1.66559203      -0.62858045
C       -0.63789262      -1.46554995      -0.24686240
C       -0.85165738      -0.17922259       1.13650028
C       -1.51366153      -0.27045249      -0.22498151
C       -1.33611555       0.83805255      -1.21891637
H        1.98621403       0.32057512       1.88748010
H        1.22440056       1.65625955       0.78530118
H        2.78367642       0.81990854       0.20239046
H        2.61359473      -0.97947722      -0.17030524
H        1.54810195       0.20180581      -1.23090068
H       -1.03419983      -2.42108227       0.13063019
H       -1.14226872       0.77424907       1.57464996
H       -1.17906845      -0.86832400       1.91730063
H       -2.54856954      -0.62003636      -0.18895293
H       -1.44347170       0.48174939      -2.24360550
H       -2.04945461       1.63767654      -1.00459080
H       -0.35993749       1.31158662      -1.15326415
