16
Frame=0 idx=000008 GeodesicLength=0.0 rxn_smarts="[C:1]1([H:7])([H:8])[C@@:2]2([H:9])[C:3]([H:10])([H:11])[C@:4]1([H:12])[C:5]([H:13])([H:14])[C:6]2([H:15])[H:16]>>[C:1]1([H:7])([H:8])[C@:2]([C:3]([H:10])([H:11])[H:12])([H:9])[C:6]([H:15])([H:16])[C:5]([H:13])([H:14])[C:4]1"
C        0.86344559      -0.78320126      -0.77185899
C        0.49345485      -0.49625174       0.68063581
C        0.90315574       0.97858146       0.60815911
C        0.13208374       0.48427916      -1.26861069
C       -1.25428853       0.28128418      -0.67403095
C       -1.03366501      -0.51635030       0.63909249
H        0.43602190      -1.69355574      -1.19886224
H        1.93548345      -0.76409656      -0.97115190
H        0.94594900      -1.06936278       1.49495423
H        1.98314041       1.12687031       0.62489346
H        0.38245230       1.68380628       1.25634755
H        0.72058836       1.41428894      -0.56658154
H       -1.81377250      -0.29138283      -1.41937109
H       -1.79259344       1.21824728      -0.53169639
H       -1.41518568      -1.53844476       0.59036888
H       -1.48627021      -0.03471162       1.50771233
16
Frame=1 idx=000008 GeodesicLength=0.06240902749266496 rxn_smarts="[C:1]1([H:7])([H:8])[C@@:2]2([H:9])[C:3]([H:10])([H:11])[C@:4]1([H:12])[C:5]([H:13])([H:14])[C:6]2([H:15])[H:16]>>[C:1]1([H:7])([H:8])[C@:2]([C:3]([H:10])([H:11])[H:12])([H:9])[C:6]([H:15])([H:16])[C:5]([H:13])([H:14])[C:4]1"
C        0.86402794      -0.78374415      -0.77129887
C        0.49319314      -0.49475402       0.68173232
C        0.90342632       0.98007420       0.60777529
C        0.12926246       0.47817850      -1.26847306
C       -1.25680590       0.27496108      -0.67720263
C       -1.03423241      -0.51614598       0.63897403
H        0.43838745      -1.69469747      -1.19982244
H        1.93584929      -0.76382631      -0.97178891
H        0.94570512      -1.07021262       1.49403446
H        1.98419719       1.12355926       0.63025381
H        0.38794678       1.68013528       1.26649546
H        0.72186850       1.43390608      -0.57480951
H       -1.82366083      -0.29418179      -1.41959341
H       -1.78642240       1.21769176      -0.53514275
H       -1.41508886      -1.53872652       0.59297761
H       -1.48765380      -0.03221731       1.50588860
16
Frame=2 idx=000008 GeodesicLength=0.12440391622320249 rxn_smarts="[C:1]1([H:7])([H:8])[C@@:2]2([H:9])[C:3]([H:10])([H:11])[C@:4]1([H:12])[C:5]([H:13])([H:14])[C:6]2([H:15])[H:16]>>[C:1]1([H:7])([H:8])[C@:2]([C:3]([H:10])([H:11])[H:12])([H:9])[C:6]([H:15])([H:16])[C:5]([H:13])([H:14])[C:4]1"
C        0.86460123      -0.78430121      -0.77074112
C        0.49291146      -0.49327829       0.68284462
C        0.90370216       0.98160781       0.60741466
C        0.12649589       0.47210262      -1.26822815
C       -1.25931916       0.26859162      -0.68037022
C       -1.03483237      -0.51596487       0.63885989
H        0.44076249      -1.69584362      -1.20079656
H        1.93619635      -0.76350562      -0.97246655
H        0.94545607      -1.07108100       1.49309190
H        1.98515872       1.12025799       0.63549313
H        0.39354375       1.67634155       1.27662912
H        0.72310036       1.45363071      -0.58286513
H       -1.83360829      -0.29696747      -1.41970594
H       -1.78012501       1.21702197      -0.53877630
H       -1.41498728      -1.53899701       0.59561241
H       -1.48905637      -0.02961518       1.50400424
16
Frame=3 idx=000008 GeodesicLength=0.18568829036902126 rxn_smarts="[C:1]1([H:7])([H:8])[C@@:2]2([H:9])[C:3]([H:10])([H:11])[C@:4]1([H:12])[C:5]([H:13])([H:14])[C:6]2([H:15])[H:16]>>[C:1]1([H:7])([H:8])[C@:2]([C:3]([H:10])([H:11])[H:12])([H:9])[C:6]([H:15])([H:16])[C:5]([H:13])([H:14])[C:4]1"
C        0.86519653      -0.78490776      -0.77014468
C        0.49262565      -0.49187446       0.68398977
C        0.90394649       0.98315896       0.60707126
C        0.12384366       0.46609877      -1.26788856
C       -1.26180125       0.26217892      -0.68357058
C       -1.03542952      -0.51580516       0.63876026
H        0.44311473      -1.69698314      -1.20179109
H        1.93656338      -0.76319491      -0.97311449
H        0.94520263      -1.07196004       1.49216876
H        1.98602309       1.11707922       0.64050208
H        0.39921304       1.67243158       1.28672490
H        0.72424020       1.47339181      -0.59079444
H       -1.84360289      -0.29964138      -1.41976422
H       -1.77374346       1.21628440      -0.54247942
H       -1.41492672      -1.53926415       0.59826289
H       -1.49046555      -0.02699268       1.50206756
16
Frame=4 idx=000008 GeodesicLength=0.2462273126375918 rxn_smarts="[C:1]1([H:7])([H:8])[C@@:2]2([H:9])[C:3]([H:10])([H:11])[C@:4]1([H:12])[C:5]([H:13])([H:14])[C:6]2([H:15])[H:16]>>[C:1]1([H:7])([H:8])[C@:2]([C:3]([H:10])([H:11])[H:12])([H:9])[C:6]([H:15])([H:16])[C:5]([H:13])([H:14])[C:4]1"
C        0.86577705      -0.78552305      -0.76954742
C        0.49232979      -0.49050072       0.68518352
C        0.90417141       0.98471455       0.60681565
C        0.12127055       0.46020980      -1.26745059
C       -1.26426889       0.25573140      -0.68674382
C       -1.03604774      -0.51564904       0.63863323
H        0.44547883      -1.69810484      -1.20278348
H        1.93689449      -0.76288457      -0.97375376
H        0.94494078      -1.07284514       1.49128174
H        1.98682797       1.11397740       0.64534810
H        0.40495052       1.66843312       1.29667856
H        0.72534233       1.49313066      -0.59864196
H       -1.85359430      -0.30220408      -1.41975401
H       -1.76731230       1.21539944      -0.54626402
H       -1.41490722      -1.53951537       0.60087807
H       -1.49185327      -0.02436956       1.50012018
16
Frame=5 idx=000008 GeodesicLength=0.30571163732919127 rxn_smarts="[C:1]1([H:7])([H:8])[C@@:2]2([H:9])[C:3]([H:10])([H:11])[C@:4]1([H:12])[C:5]([H:13])([H:14])[C:6]2([H:15])[H:16]>>[C:1]1([H:7])([H:8])[C@:2]([C:3]([H:10])([H:11])[H:12])([H:9])[C:6]([H:15])([H:16])[C:5]([H:13])([H:14])[C:4]1"
C        0.86635497      -0.78619435      -0.76893916
C        0.49203450      -0.48918860       0.68641645
C        0.90439128       0.98631682       0.60645888
C        0.11886676       0.45442035      -1.26689048
C       -1.26668207       0.24925908      -0.68996672
C       -1.03668837      -0.51550703       0.63850167
H        0.44780947      -1.69926634      -1.20379471
H        1.93722145      -0.76258428      -0.97440032
H        0.94467686      -1.07375041       1.49041677
H        1.98761793       1.11091783       0.65002245
H        0.41077289       1.66436766       1.30652066
H        0.72624961       1.51298335      -0.60614816
H       -1.86361787      -0.30463196      -1.41962286
H       -1.76083283       1.21427602      -0.55020818
H       -1.41493455      -1.53973434       0.60347460
H       -1.49324003      -0.02168379       1.49815911
16
Frame=6 idx=000008 GeodesicLength=0.36442066535195206 rxn_smarts="[C:1]1([H:7])([H:8])[C@@:2]2([H:9])[C:3]([H:10])([H:11])[C@:4]1([H:12])[C:5]([H:13])([H:14])[C:6]2([H:15])[H:16]>>[C:1]1([H:7])([H:8])[C@:2]([C:3]([H:10])([H:11])[H:12])([H:9])[C:6]([H:15])([H:16])[C:5]([H:13])([H:14])[C:4]1"
C        0.86693542      -0.78689488      -0.76830768
C        0.49173601      -0.48790812       0.68766754
C        0.90464562       0.98790917       0.60619204
C        0.11655036       0.44875586      -1.26617989
C       -1.26907559       0.24275190      -0.69318932
C       -1.03732784      -0.51536531       0.63838678
H        0.45013852      -1.70040398      -1.20483091
H        1.93753887      -0.76227218      -0.97505358
H        0.94441453      -1.07468986       1.48956290
H        1.98832674       1.10785987       0.65456976
H        0.41664209       1.66021882       1.31623660
H        0.72698514       1.53285368      -0.61358606
H       -1.87365946      -0.30698329      -1.41941712
H       -1.75425970       1.21304080      -0.55427682
H       -1.41496049      -1.53992766       0.60609600
H       -1.49463023      -0.01894482       1.49612976
16
Frame=7 idx=000008 GeodesicLength=0.4225279233014753 rxn_smarts="[C:1]1([H:7])([H:8])[C@@:2]2([H:9])[C:3]([H:10])([H:11])[C@:4]1([H:12])[C:5]([H:13])([H:14])[C:6]2([H:15])[H:16]>>[C:1]1([H:7])([H:8])[C@:2]([C:3]([H:10])([H:11])[H:12])([H:9])[C:6]([H:15])([H:16])[C:5]([H:13])([H:14])[C:4]1"
C        0.86749776      -0.78762450      -0.76765213
C        0.49143591      -0.48669959       0.68897375
C        0.90479957       0.98957039       0.60594678
C        0.11430718       0.44313776      -1.26545272
C       -1.27147176       0.23623039      -0.69638905
C       -1.03797670      -0.51521157       0.63823849
H        0.45248329      -1.70154614      -1.20586886
H        1.93784522      -0.76196252      -0.97568308
H        0.94415247      -1.07563486       1.48873855
H        1.98899808       1.10488753       0.65898199
H        0.42265821       1.65590411       1.32583656
H        0.72766323       1.55282815      -0.62084549
H       -1.88375085      -0.30923222      -1.41915825
H       -1.74761776       1.21164431      -0.55845874
H       -1.41503096      -1.54012096       0.60871268
H       -1.49599290      -0.01617027       1.49407951
16
Frame=8 idx=000008 GeodesicLength=0.4799531675617469 rxn_smarts="[C:1]1([H:7])([H:8])[C@@:2]2([H:9])[C:3]([H:10])([H:11])[C@:4]1([H:12])[C:5]([H:13])([H:14])[C:6]2([H:15])[H:16]>>[C:1]1([H:7])([H:8])[C@:2]([C:3]([H:10])([H:11])[H:12])([H:9])[C:6]([H:15])([H:16])[C:5]([H:13])([H:14])[C:4]1"
C        0.86808780      -0.78838337      -0.76698994
C        0.49113456      -0.48551709       0.69031801
C        0.90495654       0.99124653       0.60573601
C        0.11214801       0.43759387      -1.26459729
C       -1.27385268       0.22963828      -0.69963368
C       -1.03864619      -0.51506513       0.63808453
H        0.45483926      -1.70268194      -1.20689877
H        1.93814249      -0.76159864      -0.97631490
H        0.94386665      -1.07663044       1.48791430
H        1.98958201       1.10195928       0.66327973
H        0.42874848       1.65145790       1.33536666
H        0.72822731       1.57284204      -0.62806899
H       -1.89387973      -0.31138142      -1.41876061
H       -1.74087105       1.21013143      -0.56276361
H       -1.41512714      -1.54026580       0.61131839
H       -1.49735631      -0.01334552       1.49201017
16
Frame=9 idx=000008 GeodesicLength=0.5369297013748828 rxn_smarts="[C:1]1([H:7])([H:8])[C@@:2]2([H:9])[C:3]([H:10])([H:11])[C@:4]1([H:12])[C:5]([H:13])([H:14])[C:6]2([H:15])[H:16]>>[C:1]1([H:7])([H:8])[C@:2]([C:3]([H:10])([H:11])[H:12])([H:9])[C:6]([H:15])([H:16])[C:5]([H:13])([H:14])[C:4]1"
C        0.86866473      -0.78919013      -0.76633546
C        0.49085529      -0.48440168       0.69162602
C        0.90515756       0.99282083       0.60569867
C        0.11002250       0.43200892      -1.26383753
C       -1.27618561       0.22303758      -0.70287080
C       -1.03928953      -0.51493880       0.63793277
H        0.45716093      -1.70385347      -1.20795599
H        1.93847622      -0.76131625      -0.97695081
H        0.94360886      -1.07762058       1.48713208
H        1.99022822       1.09909856       0.66752129
H        0.43473970       1.64716131       1.34460932
H        0.72860337       1.59292516      -0.63496357
H       -1.90401090      -0.31338605      -1.41832726
H       -1.73413577       1.20859458      -0.56711230
H       -1.41527035      -1.54038362       0.61392287
H       -1.49862521      -0.01055635       1.48991071
16
Frame=10 idx=000008 GeodesicLength=0.5931746072433094 rxn_smarts="[C:1]1([H:7])([H:8])[C@@:2]2([H:9])[C:3]([H:10])([H:11])[C@:4]1([H:12])[C:5]([H:13])([H:14])[C:6]2([H:15])[H:16]>>[C:1]1([H:7])([H:8])[C@:2]([C:3]([H:10])([H:11])[H:12])([H:9])[C:6]([H:15])([H:16])[C:5]([H:13])([H:14])[C:4]1"
C        0.86923887      -0.79002916      -0.76566272
C        0.49056156      -0.48332569       0.69298626
C        0.90538471       0.99442059       0.60570093
C        0.10799026       0.42651720      -1.26297974
C       -1.27847811       0.21639989      -0.70611357
C       -1.03995699      -0.51482000       0.63778668
H        0.45947784      -1.70502895      -1.20900267
H        1.93879525      -0.76103089      -0.97759145
H        0.94334396      -1.07864245       1.48632568
H        1.99076682       1.09625293       0.67161443
H        0.44080925       1.64275735       1.35371960
H        0.72882381       1.61311491      -0.64169547
H       -1.91415299      -0.31530224      -1.41778561
H       -1.72728433       1.20693160      -0.57161470
H       -1.41542374      -1.54050047       0.61653653
H       -1.49989618      -0.00771461       1.48777582
16
Frame=11 idx=000008 GeodesicLength=0.6487065204279262 rxn_smarts="[C:1]1([H:7])([H:8])[C@@:2]2([H:9])[C:3]([H:10])([H:11])[C@:4]1([H:12])[C:5]([H:13])([H:14])[C:6]2([H:15])[H:16]>>[C:1]1([H:7])([H:8])[C@:2]([C:3]([H:10])([H:11])[H:12])([H:9])[C:6]([H:15])([H:16])[C:5]([H:13])([H:14])[C:4]1"
C        0.86984687      -0.79093040      -0.76497080
C        0.49028909      -0.48227066       0.69437237
C        0.90557776       0.99605380       0.60574961
C        0.10602814       0.42104167      -1.26211080
C       -1.28075171       0.20968325      -0.70934142
C       -1.04061946      -0.51470018       0.63759591
H        0.46179978      -1.70621886      -1.21005649
H        1.93911902      -0.76076980      -0.97816766
H        0.94306463      -1.07971163       1.48555880
H        1.99128107       1.09348410       0.67552692
H        0.44692135       1.63828981       1.36264154
H        0.72892594       1.63337300      -0.64821580
H       -1.92429959      -0.31700838      -1.41714043
H       -1.72040776       1.20510346      -0.57612914
H       -1.41562709      -1.54056699       0.61909619
H       -1.50114806      -0.00485218       1.48559122
16
Frame=12 idx=000008 GeodesicLength=0.7034628430334533 rxn_smarts="[C:1]1([H:7])([H:8])[C@@:2]2([H:9])[C:3]([H:10])([H:11])[C@:4]1([H:12])[C:5]([H:13])([H:14])[C:6]2([H:15])[H:16]>>[C:1]1([H:7])([H:8])[C@:2]([C:3]([H:10])([H:11])[H:12])([H:9])[C:6]([H:15])([H:16])[C:5]([H:13])([H:14])[C:4]1"
C        0.87045355      -0.79189303      -0.76423716
C        0.48999513      -0.48129459       0.69578769
C        0.90575745       0.99766316       0.60586716
C        0.10415066       0.41561539      -1.26119672
C       -1.28298267       0.20299650      -0.71258784
C       -1.04129474      -0.51458904       0.63739264
H        0.46411243      -1.70740863      -1.21111962
H        1.93944025      -0.76054545      -0.97870154
H        0.94279673      -1.08074108       1.48483195
H        1.99175358       1.09078699       0.67927701
H        0.45307426       1.63375786       1.37142352
H        0.72883994       1.65367012      -0.65461068
H       -1.93442189      -0.31857409      -1.41645665
H       -1.71348521       1.20317792      -0.58069162
H       -1.41586370      -1.54062646       0.62161670
H       -1.50232577      -0.00199558       1.48340518
16
Frame=13 idx=000008 GeodesicLength=0.7577893687105102 rxn_smarts="[C:1]1([H:7])([H:8])[C@@:2]2([H:9])[C:3]([H:10])([H:11])[C@:4]1([H:12])[C:5]([H:13])([H:14])[C:6]2([H:15])[H:16]>>[C:1]1([H:7])([H:8])[C@:2]([C:3]([H:10])([H:11])[H:12])([H:9])[C:6]([H:15])([H:16])[C:5]([H:13])([H:14])[C:4]1"
C        0.87105834      -0.79289170      -0.76351098
C        0.48970064      -0.48036434       0.69722806
C        0.90593512       0.99925294       0.60600349
C        0.10234014       0.41019528      -1.26024830
C       -1.28520218       0.19619370      -0.71587768
C       -1.04196549      -0.51450019       0.63718928
H        0.46644686      -1.70865669      -1.21216639
H        1.93979134      -0.76031074      -0.97925955
H        0.94252647      -1.08181186       1.48412388
H        1.99219437       1.08816181       0.68291278
H        0.45929188       1.62915332       1.38021504
H        0.72859200       1.67412929      -0.66090510
H       -1.94460114      -0.31995309      -1.41562034
H       -1.70642585       1.20113168      -0.58539647
H       -1.41612102      -1.54065755       0.62414746
H       -1.50356147       0.00092815       1.48116482
16
Frame=14 idx=000008 GeodesicLength=0.811356129280791 rxn_smarts="[C:1]1([H:7])([H:8])[C@@:2]2([H:9])[C:3]([H:10])([H:11])[C@:4]1([H:12])[C:5]([H:13])([H:14])[C:6]2([H:15])[H:16]>>[C:1]1([H:7])([H:8])[C@:2]([C:3]([H:10])([H:11])[H:12])([H:9])[C:6]([H:15])([H:16])[C:5]([H:13])([H:14])[C:4]1"
C        0.87169149      -0.79397117      -0.76274792
C        0.48942120      -0.47949641       0.69869503
C        0.90613165       1.00080465       0.60620443
C        0.10064423       0.40481456      -1.25925014
C       -1.28738164       0.18937887      -0.71917173
C       -1.04264066      -0.51441499       0.63695633
H        0.46877317      -1.70992466      -1.21322836
H        1.94014025      -0.76014100      -0.97978051
H        0.94223441      -1.08291267       1.48344131
H        1.99259325       1.08557352       0.68642448
H        0.46550970       1.62459246       1.38874378
H        0.72807815       1.69468769      -0.66699521
H       -1.95474767      -0.32110483      -1.41472823
H       -1.69933070       1.19891305      -0.59012678
H       -1.41641741      -1.54066489       0.62663176
H       -1.50469941       0.00386584       1.47893177
16
Frame=15 idx=000008 GeodesicLength=0.8641978254686462 rxn_smarts="[C:1]1([H:7])([H:8])[C@@:2]2([H:9])[C:3]([H:10])([H:11])[C@:4]1([H:12])[C:5]([H:13])([H:14])[C:6]2([H:15])[H:16]>>[C:1]1([H:7])([H:8])[C@:2]([C:3]([H:10])([H:11])[H:12])([H:9])[C:6]([H:15])([H:16])[C:5]([H:13])([H:14])[C:4]1"
C        0.87233452      -0.79509393      -0.76196678
C        0.48915209      -0.47866054       0.70018289
C        0.90628640       1.00241156       0.60642625
C        0.09902247       0.39945793      -1.25824765
C       -1.28953772       0.18253997      -0.72250176
C       -1.04332118      -0.51434221       0.63673145
H        0.47109679      -1.71121487      -1.21427710
H        1.94049815      -0.75999484      -0.98027832
H        0.94195115      -1.08400712       1.48277622
H        1.99296947       1.08307055       0.68977358
H        0.47179452       1.61989747       1.39717669
H        0.72747442       1.71533481      -0.67285838
H       -1.96495063      -0.32213896      -1.41368816
H       -1.69215580       1.19655553      -0.59496852
H       -1.41676437      -1.54063085       0.62907985
H       -1.50585026       0.00681551       1.47663972
16
Frame=16 idx=000008 GeodesicLength=0.916370384358156 rxn_smarts="[C:1]1([H:7])([H:8])[C@@:2]2([H:9])[C:3]([H:10])([H:11])[C@:4]1([H:12])[C:5]([H:13])([H:14])[C:6]2([H:15])[H:16]>>[C:1]1([H:7])([H:8])[C@:2]([C:3]([H:10])([H:11])[H:12])([H:9])[C:6]([H:15])([H:16])[C:5]([H:13])([H:14])[C:4]1"
C        0.87298752      -0.79629463      -0.76115271
C        0.48887519      -0.47786606       0.70170099
C        0.90643887       1.00399686       0.60668468
C        0.09745552       0.39410111      -1.25722078
C       -1.29166328       0.17565973      -0.72580105
C       -1.04400300      -0.51427786       0.63645396
H        0.47341035      -1.71254199      -1.21532233
H        1.94084831      -0.75985700      -0.98079522
H        0.94164761      -1.08507582       1.48216615
H        1.99331211       1.08058984       0.69301112
H        0.47810893       1.61519160       1.40537813
H        0.72670848       1.73608900      -0.67848790
H       -1.97511804      -0.32296211      -1.41256206
H       -1.68492509       1.19407865      -0.59986604
H       -1.41710706      -1.54059939       0.63150255
H       -1.50697642       0.00976805       1.47431050
