13
Frame=0 idx=002269 GeodesicLength=0.0 rxn_smarts="[C:1]1([H:7])([H:8])[C:2]([H:9])=[C:3]([H:10])[C@@:4]2([H:11])[N:5]([H:12])[C@@:6]12[H:13]>>[C:1]1([H:7])([H:8])[C:2][C:3]([H:9])([H:10])[C@@:4]2([H:11])[N:5]([H:12])[C@@:6]12[H:13]"
C        0.45169238      -1.21840934       0.07547705
C        1.10691742      -0.33119284      -0.97440669
C        0.59316808       0.95117359      -0.70630227
C       -0.49698276       0.99479763       0.32236055
N       -1.66297849       0.17493397      -0.00440795
C       -0.60763095      -0.40569083       0.80695754
H        1.20723434      -1.62548317       0.75228224
H        0.02559084      -2.08771475      -0.43579712
H        1.73506065       0.65595017      -0.30004554
H        0.83610288       1.81318914      -1.32367547
H       -0.68259883       1.87612342       0.92331593
H       -1.61757090      -0.15611107      -0.96255906
H       -0.88800470      -0.64156591       1.82680076
13
Frame=1 idx=002269 GeodesicLength=0.0413572768824786 rxn_smarts="[C:1]1([H:7])([H:8])[C:2]([H:9])=[C:3]([H:10])[C@@:4]2([H:11])[N:5]([H:12])[C@@:6]12[H:13]>>[C:1]1([H:7])([H:8])[C:2][C:3]([H:9])([H:10])[C@@:4]2([H:11])[N:5]([H:12])[C@@:6]12[H:13]"
C        0.44965009      -1.21962082       0.07653378
C        1.10625541      -0.32960795      -0.96754347
C        0.59621152       0.95407046      -0.70132161
C       -0.49633123       0.99426207       0.32499592
N       -1.66326908       0.17730910      -0.00583785
C       -0.61036967      -0.40693487       0.80647963
H        1.20542718      -1.62458624       0.75481007
H        0.02643786      -2.09022070      -0.43494316
H        1.75547537       0.65913659      -0.30881478
H        0.82322742       1.80994518      -1.33291077
H       -0.68249668       1.87385623       0.92834788
H       -1.61649705      -0.15185760      -0.96458099
H       -0.89372114      -0.64575143       1.82478535
13
Frame=2 idx=002269 GeodesicLength=0.08270029108634906 rxn_smarts="[C:1]1([H:7])([H:8])[C:2]([H:9])=[C:3]([H:10])[C@@:4]2([H:11])[N:5]([H:12])[C@@:6]12[H:13]>>[C:1]1([H:7])([H:8])[C:2][C:3]([H:9])([H:10])[C@@:4]2([H:11])[N:5]([H:12])[C@@:6]12[H:13]"
C        0.44761088      -1.22079302       0.07763782
C        1.10566894      -0.32792999      -0.96051291
C        0.59929912       0.95706045      -0.69622002
C       -0.49571480       0.99373427       0.32768067
N       -1.66355741       0.17970692      -0.00731148
C       -0.61316534      -0.40817276       0.80599624
H        1.20357341      -1.62364190       0.75743891
H        0.02735688      -2.09267027      -0.43410651
H        1.77607934       0.66221739      -0.31828520
H        0.81022090       1.80643528      -1.34184543
H       -0.68246734       1.87156509       0.93344923
H       -1.61534728      -0.14756175      -0.96664403
H       -0.89955729      -0.64994971       1.82272272
13
Frame=3 idx=002269 GeodesicLength=0.12403188225491446 rxn_smarts="[C:1]1([H:7])([H:8])[C:2]([H:9])=[C:3]([H:10])[C@@:4]2([H:11])[N:5]([H:12])[C@@:6]12[H:13]>>[C:1]1([H:7])([H:8])[C:2][C:3]([H:9])([H:10])[C@@:4]2([H:11])[N:5]([H:12])[C@@:6]12[H:13]"
C        0.44557567      -1.22192499       0.07879113
C        1.10515572      -0.32615957      -0.95331368
C        0.60242858       0.96014330      -0.69099884
C       -0.49513725       0.99321364       0.33041185
N       -1.66384477       0.18212436      -0.00883044
C       -0.61601892      -0.40940406       0.80550685
H        1.20167344      -1.62264644       0.76017216
H        0.02835108      -2.09506454      -0.43328211
H        1.79685893       0.66518793      -0.32849328
H        0.79710997       1.80266754      -1.35044213
H       -0.68251757       1.86924964       0.93861504
H       -1.61412148      -0.14322857      -0.96874859
H       -0.90551339      -0.65415825       1.82061203
13
Frame=4 idx=002269 GeodesicLength=0.16535468135017267 rxn_smarts="[C:1]1([H:7])([H:8])[C:2]([H:9])=[C:3]([H:10])[C@@:4]2([H:11])[N:5]([H:12])[C@@:6]12[H:13]>>[C:1]1([H:7])([H:8])[C:2][C:3]([H:9])([H:10])[C@@:4]2([H:11])[N:5]([H:12])[C@@:6]12[H:13]"
C        0.44354572      -1.22301575       0.07999737
C        1.10471585      -0.32429598      -0.94594105
C        0.60559515       0.96331797      -0.68565841
C       -0.49460362       0.99269920       0.33318805
N       -1.66413299       0.18455726      -0.01039620
C       -0.61893213      -0.41062904       0.80501179
H        1.19972666      -1.62159681       0.76301539
H        0.02942485      -2.09740376      -0.43246532
H        1.81779950       0.66803777      -0.33948408
H        0.78392769       1.79865966      -1.35866758
H       -0.68265635       1.86690919       0.94384159
H       -1.61281915      -0.13886392      -0.97089476
H       -0.91159120      -0.65837580       1.81845321
13
Frame=5 idx=002269 GeodesicLength=0.20666694397232727 rxn_smarts="[C:1]1([H:7])([H:8])[C:2]([H:9])=[C:3]([H:10])[C@@:4]2([H:11])[N:5]([H:12])[C@@:6]12[H:13]>>[C:1]1([H:7])([H:8])[C:2][C:3]([H:9])([H:10])[C@@:4]2([H:11])[N:5]([H:12])[C@@:6]12[H:13]"
C        0.44152228      -1.22406379       0.08125982
C        1.10435088      -0.32233792      -0.93838853
C        0.60879413       0.96658501      -0.68020221
C       -0.49411850       0.99219052       0.33600638
N       -1.66442348       0.18700201      -0.01201110
C       -0.62190634      -0.41184706       0.80451083
H        1.19773262      -1.62048979       0.76597462
H        0.03058289      -2.09968786      -0.43165192
H        1.83888270       0.67075907      -0.35130954
H        0.77070618       1.79441983      -1.36647372
H       -0.68289194       1.86454371       0.94912370
H       -1.61143946      -0.13447405      -0.97308359
H       -0.91779196      -0.66259969       1.81624526
13
Frame=6 idx=002269 GeodesicLength=0.24798254915724768 rxn_smarts="[C:1]1([H:7])([H:8])[C:2]([H:9])=[C:3]([H:10])[C@@:4]2([H:11])[N:5]([H:12])[C@@:6]12[H:13]>>[C:1]1([H:7])([H:8])[C:2][C:3]([H:9])([H:10])[C@@:4]2([H:11])[N:5]([H:12])[C@@:6]12[H:13]"
C        0.43950682      -1.22506853       0.08258163
C        1.10405964      -0.32028610      -0.93065275
C        0.61202156       0.96994236      -0.67463036
C       -0.49368636       0.99168637       0.33886493
N       -1.66471780       0.18945440      -0.01367661
C       -0.62494280      -0.41305863       0.80400402
H        1.19569080      -1.61932309       0.76905506
H        0.03182924      -2.10191797      -0.43083628
H        1.86009112       0.67334308      -0.36400848
H        0.75747925       1.78996944      -1.37383051
H       -0.68323256       1.86215244       0.95445716
H       -1.60998206      -0.13006506      -0.97531539
H       -0.92411686      -0.66682871       1.81398757
13
Frame=7 idx=002269 GeodesicLength=0.2892940949831568 rxn_smarts="[C:1]1([H:7])([H:8])[C:2]([H:9])=[C:3]([H:10])[C@@:4]2([H:11])[N:5]([H:12])[C@@:6]12[H:13]>>[C:1]1([H:7])([H:8])[C:2][C:3]([H:9])([H:10])[C@@:4]2([H:11])[N:5]([H:12])[C@@:6]12[H:13]"
C        0.43750119      -1.22602918       0.08396816
C        1.10384631      -0.31813867      -0.92272300
C        0.61527475       0.97338928      -0.66893846
C       -0.49331165       0.99118584       0.34176473
N       -1.66501642       0.19191082      -0.01539582
C       -0.62804399      -0.41426486       0.80349185
H        1.19359930      -1.61809531       0.77226589
H        0.03317009      -2.10409362      -0.43001426
H        1.88140194       0.67577651      -0.37763630
H        0.74427966       1.78533031      -1.38071086
H       -0.68368729       1.85973409       0.95984124
H       -1.60844285      -0.12564090      -0.97759219
H       -0.93057105      -0.67106430       1.81167903
13
Frame=8 idx=002269 GeodesicLength=0.3306116677409461 rxn_smarts="[C:1]1([H:7])([H:8])[C:2]([H:9])=[C:3]([H:10])[C@@:4]2([H:11])[N:5]([H:12])[C@@:6]12[H:13]>>[C:1]1([H:7])([H:8])[C:2][C:3]([H:9])([H:10])[C@@:4]2([H:11])[N:5]([H:12])[C@@:6]12[H:13]"
C        0.43550703      -1.22694534       0.08542400
C        1.10371262      -0.31589645      -0.91459213
C        0.61855146       0.97692492      -0.66312267
C       -0.49299857       0.99068782       0.34470553
N       -1.66532009       0.19436757      -0.01717152
C       -0.63121186      -0.41546666       0.80297447
H        1.19145656      -1.61680560       0.77561477
H        0.03461025      -2.10621558      -0.42918036
H        1.90279361       0.67805244      -0.39224249
H        0.73114154       1.78052277      -1.38708581
H       -0.68426500       1.85728750       0.96527401
H       -1.60681899      -0.12120643      -0.97991584
H       -0.93715857      -0.67530696       1.80931804
13
Frame=9 idx=002269 GeodesicLength=0.37196168249925343 rxn_smarts="[C:1]1([H:7])([H:8])[C:2]([H:9])=[C:3]([H:10])[C@@:4]2([H:11])[N:5]([H:12])[C@@:6]12[H:13]>>[C:1]1([H:7])([H:8])[C:2][C:3]([H:9])([H:10])[C@@:4]2([H:11])[N:5]([H:12])[C@@:6]12[H:13]"
C        0.43352535      -1.22781750       0.08695359
C        1.10365521      -0.31356139      -0.90625607
C        0.62184686       0.98054467      -0.65717956
C       -0.49275242       0.99019009       0.34768795
N       -1.66563057       0.19681978      -0.01900560
C       -0.63444912      -0.41666652       0.80245208
H        1.18926298      -1.61545044       0.77910898
H        0.03615430      -2.10828690      -0.42832652
H        1.92424448       0.68016585      -0.40787013
H        0.71810989       1.77557768      -1.39293556
H       -0.68497434       1.85481054       0.97075423
H       -1.60510925      -0.11676657      -0.98228742
H       -0.94388337      -0.67955930       1.80690402
13
Frame=10 idx=002269 GeodesicLength=0.4133223139384717 rxn_smarts="[C:1]1([H:7])([H:8])[C:2]([H:9])=[C:3]([H:10])[C@@:4]2([H:11])[N:5]([H:12])[C@@:6]12[H:13]>>[C:1]1([H:7])([H:8])[C:2][C:3]([H:9])([H:10])[C@@:4]2([H:11])[N:5]([H:12])[C@@:6]12[H:13]"
C        0.43156050      -1.22864309       0.08856464
C        1.10368927      -0.31112594      -0.89769362
C        0.62516341       0.98425337      -0.65109522
C       -0.49257609       0.98969315       0.35071720
N       -1.66594501       0.19926592      -0.02090388
C       -0.63775813      -0.41786516       0.80192518
H        1.18701288      -1.61403229       0.78276222
H        0.03781307      -2.11030175      -0.42745321
H        1.94572159       0.68208621      -0.42458518
H        0.70520147       1.77051407      -1.39824544
H       -0.68582625       1.85230177       0.97628603
H       -1.60330184      -0.11232135      -0.98471196
H       -0.95075486      -0.68382491       1.80443324
13
Frame=11 idx=002269 GeodesicLength=0.45469306740257537 rxn_smarts="[C:1]1([H:7])([H:8])[C:2]([H:9])=[C:3]([H:10])[C@@:4]2([H:11])[N:5]([H:12])[C@@:6]12[H:13]>>[C:1]1([H:7])([H:8])[C:2][C:3]([H:9])([H:10])[C@@:4]2([H:11])[N:5]([H:12])[C@@:6]12[H:13]"
C        0.42961514      -1.22942094       0.09026504
C        1.10382546      -0.30858609      -0.88888407
C        0.62850242       0.98805261      -0.64485742
C       -0.49247375       0.98919626       0.35379719
N       -1.66626180       0.20170342      -0.02287235
C       -0.64114257      -0.41906424       0.80139418
H        1.18470220      -1.61255250       0.78658896
H        0.03959546      -2.11225760      -0.42655796
H        1.96719393       0.68379659      -0.44246344
H        0.69244565       1.76535281      -1.40298958
H       -0.68683215       1.84975946       0.98187232
H       -1.60138672      -0.10787236      -0.98719464
H       -0.95778329      -0.68810742       1.80190175
13
Frame=12 idx=002269 GeodesicLength=0.4960746393342508 rxn_smarts="[C:1]1([H:7])([H:8])[C:2]([H:9])=[C:3]([H:10])[C@@:4]2([H:11])[N:5]([H:12])[C@@:6]12[H:13]>>[C:1]1([H:7])([H:8])[C:2][C:3]([H:9])([H:10])[C@@:4]2([H:11])[N:5]([H:12])[C@@:6]12[H:13]"
C        0.42769339      -1.23014907       0.09206353
C        1.10407611      -0.30593562      -0.87980502
C        0.63186608       0.99194543      -0.63844934
C       -0.49244946       0.98869882       0.35693417
N       -1.66657829       0.20412984      -0.02491771
C       -0.64460609      -0.42026583       0.80085936
H        1.18232583      -1.61101224       0.79060489
H        0.04151285      -2.11415036      -0.42563854
H        1.98862556       0.68527043      -0.46158061
H        0.67987005       1.76011936      -1.40715282
H       -0.68800477       1.84718106       0.98751825
H       -1.59935111      -0.10341961      -0.98974140
H       -0.96498016      -0.69241221       1.79930523
13
Frame=13 idx=002269 GeodesicLength=0.5374601209969384 rxn_smarts="[C:1]1([H:7])([H:8])[C:2]([H:9])=[C:3]([H:10])[C@@:4]2([H:11])[N:5]([H:12])[C@@:6]12[H:13]>>[C:1]1([H:7])([H:8])[C:2][C:3]([H:9])([H:10])[C@@:4]2([H:11])[N:5]([H:12])[C@@:6]12[H:13]"
C        0.42579921      -1.23082680       0.09396693
C        1.10444975      -0.30317220      -0.87044110
C        0.63525977       0.99593239      -0.63185535
C       -0.49250485       0.98820025       0.36013274
N       -1.66689049       0.20654391      -0.02704615
C       -0.64815063      -0.42147189       0.80032015
H        1.17988079      -1.60941295       0.79482193
H        0.04357458      -2.11597797      -0.42469138
H        2.00996877       0.68649224      -0.48199182
H        0.66750259       1.75483423      -1.41072436
H       -0.68935296       1.84456441       0.99322729
H       -1.59718267      -0.09896173      -0.99235766
H       -0.97235387      -0.69674391       1.79663879
13
Frame=14 idx=002269 GeodesicLength=0.5788418329939062 rxn_smarts="[C:1]1([H:7])([H:8])[C:2]([H:9])=[C:3]([H:10])[C@@:4]2([H:11])[N:5]([H:12])[C@@:6]12[H:13]>>[C:1]1([H:7])([H:8])[C:2][C:3]([H:9])([H:10])[C@@:4]2([H:11])[N:5]([H:12])[C@@:6]12[H:13]"
C        0.42393867      -1.23145025       0.09598706
C        1.10496852      -0.30028395      -0.86075651
C        0.63868855       1.00002103      -0.62505215
C       -0.49264418       0.98770087       0.36340203
N       -1.66719333       0.20894408      -0.02926796
C       -0.65178081      -0.42268425       0.79977660
H        1.17735953      -1.60775750       0.79926241
H        0.04579740      -2.11773200      -0.42371762
H        2.03117473       0.68742099      -0.50380132
H        0.65536670       1.74952033      -1.41368267
H       -0.69089316       1.84190693       0.99900781
H       -1.59486135      -0.09449669      -0.99505272
H       -0.97992126      -0.70110960       1.79389503
13
Frame=15 idx=002269 GeodesicLength=0.6202084388198214 rxn_smarts="[C:1]1([H:7])([H:8])[C:2]([H:9])=[C:3]([H:10])[C@@:4]2([H:11])[N:5]([H:12])[C@@:6]12[H:13]>>[C:1]1([H:7])([H:8])[C:2][C:3]([H:9])([H:10])[C@@:4]2([H:11])[N:5]([H:12])[C@@:6]12[H:13]"
C        0.42211792      -1.23201689       0.09813393
C        1.10565018      -0.29726311      -0.85072287
C        0.64216066       1.00421611      -0.61801657
C       -0.49286925       0.98720081       0.36674983
N       -1.66748004       0.21132994      -0.03159304
C       -0.65549947      -0.42390487       0.79922773
H        1.17475640      -1.60604878       0.80394477
H        0.04819622      -2.11940625      -0.42271622
H        2.05218120       0.68802592      -0.52709177
H        0.64348726       1.74419793      -1.41601315
H       -0.69263813       1.83920593       1.00486665
H       -1.59236695      -0.09002075      -0.99783538
H       -0.98769601      -0.70551600       1.79106608
13
Frame=16 idx=002269 GeodesicLength=0.6615458492021735 rxn_smarts="[C:1]1([H:7])([H:8])[C:2]([H:9])=[C:3]([H:10])[C@@:4]2([H:11])[N:5]([H:12])[C@@:6]12[H:13]>>[C:1]1([H:7])([H:8])[C:2][C:3]([H:9])([H:10])[C@@:4]2([H:11])[N:5]([H:12])[C@@:6]12[H:13]"
C        0.42034502      -1.23252251       0.10042040
C        1.10651898      -0.29409722      -0.84030109
C        0.64568626       1.00852606      -0.61071934
C       -0.49318225       0.98670075       0.37018651
N       -1.66774217       0.21370139      -0.03403438
C       -0.65931056      -0.42513570       0.79867224
H        1.17206397      -1.60428981       0.80889371
H        0.05079100      -2.12099114      -0.42168829
H        2.07291653       0.68826206      -0.55197143
H        0.63188754       1.73888844      -1.41769586
H       -0.69460416       1.83645826       1.01081349
H       -1.58967345      -0.08552893      -1.00071741
H       -0.99569672      -0.70997165       1.78814145
