16
Frame=0 idx=006872 GeodesicLength=0.0 rxn_smarts="[C:1]([N:2]1[C:3]([H:11])([H:12])[C@:4]1([C:5](=[O:6])[C:7]([H:14])([H:15])[H:16])[H:13])([H:8])([H:9])[H:10]>>[C-:5]#[O+:6].[C:1]([N+:2]1([C:7]([H:14])([H:15])[H:16])[C:3]([H:11])([H:12])[C-:4]1[H:13])([H:8])([H:9])[H:10]"
C        0.83709182       0.34750596      -1.50227249
N        0.29446790      -0.01214223      -0.21327933
C        0.94433153      -0.93666933       0.68223506
C       -0.36988996      -1.22368960       0.07297971
C       -1.58282756      -0.76516469       1.01119403
O       -2.51533710      -1.46923625       1.21299060
C       -0.64342377       1.45207911       0.67708276
H        1.43355984       1.25596497      -1.39840542
H        0.01808074       0.54193747      -2.19507066
H        1.47043255      -0.44428396      -1.90781146
H        1.83934339      -1.43184399       0.32213901
H        0.95076536      -0.62411235       1.72546903
H       -0.50153934      -1.95977655      -0.71016890
H       -1.58139489       1.63997255       0.16955664
H       -0.74986172       1.53510795       1.74781448
H        0.15620121       2.09435098       0.30554693
16
Frame=1 idx=006872 GeodesicLength=0.09721832417244894 rxn_smarts="[C:1]([N:2]1[C:3]([H:11])([H:12])[C@:4]1([C:5](=[O:6])[C:7]([H:14])([H:15])[H:16])[H:13])([H:8])([H:9])[H:10]>>[C-:5]#[O+:6].[C:1]([N+:2]1([C:7]([H:14])([H:15])[H:16])[C:3]([H:11])([H:12])[C-:4]1[H:13])([H:8])([H:9])[H:10]"
C        0.85823426       0.33989634      -1.50565068
N        0.30493652      -0.00331762      -0.21577598
C        0.94566358      -0.93525860       0.67988067
C       -0.36887001      -1.21583030       0.06632539
C       -1.59930701      -0.76030597       1.01685702
O       -2.53912458      -1.45685051       1.20160779
C       -0.65746868       1.43913307       0.68075463
H        1.46708414       1.24034952      -1.40366515
H        0.04690275       0.54125947      -2.20553884
H        1.48037519      -0.46428470      -1.90436384
H        1.83924219      -1.43444086       0.32115771
H        0.95296949      -0.62780528       1.72443853
H       -0.49025572      -1.94897801      -0.72180501
H       -1.63660095       1.62989258       0.25882682
H       -0.68572149       1.54012773       1.75586427
H        0.08194033       2.11641314       0.25108667
16
Frame=2 idx=006872 GeodesicLength=0.19285196507242697 rxn_smarts="[C:1]([N:2]1[C:3]([H:11])([H:12])[C@:4]1([C:5](=[O:6])[C:7]([H:14])([H:15])[H:16])[H:13])([H:8])([H:9])[H:10]>>[C-:5]#[O+:6].[C:1]([N+:2]1([C:7]([H:14])([H:15])[H:16])[C:3]([H:11])([H:12])[C-:4]1[H:13])([H:8])([H:9])[H:10]"
C        0.87938136       0.33284803      -1.50854981
N        0.31535165       0.00540477      -0.21837955
C        0.94685872      -0.93376231       0.67751192
C       -0.36785532      -1.20798420       0.05955550
C       -1.61606798      -0.75551669       1.02284428
O       -2.56319932      -1.44396873       1.19012195
C       -0.67223771       1.42605764       0.68345312
H        1.49994629       1.22536974      -1.40778997
H        0.07596779       0.54085532      -2.21565976
H        1.49053205      -0.48315281      -1.90043406
H        1.83906870      -1.43688642       0.32029101
H        0.95493445      -0.63106168       1.72321777
H       -0.47890002      -1.93800560      -0.73348501
H       -1.68559223       1.62040195       0.35324379
H       -0.62087165       1.54735522       1.75661616
H        0.00268322       2.13204576       0.19744265
16
Frame=3 idx=006872 GeodesicLength=0.28716800190455255 rxn_smarts="[C:1]([N:2]1[C:3]([H:11])([H:12])[C@:4]1([C:5](=[O:6])[C:7]([H:14])([H:15])[H:16])[H:13])([H:8])([H:9])[H:10]>>[C-:5]#[O+:6].[C:1]([N+:2]1([C:7]([H:14])([H:15])[H:16])[C:3]([H:11])([H:12])[C-:4]1[H:13])([H:8])([H:9])[H:10]"
C        0.90051912       0.32647781      -1.51098432
N        0.32569142       0.01407707      -0.22101169
C        0.94779141      -0.93211741       0.67522283
C       -0.36694781      -1.20022813       0.05264937
C       -1.63331761      -0.75093367       1.02912653
O       -2.58769554      -1.43091362       1.17861845
C       -0.68781976       1.41281332       0.68542843
H        1.53234813       1.21114838      -1.41076112
H        0.10523839       0.54095666      -2.22537391
H        1.50070948      -0.50087254      -1.89620699
H        1.83871076      -1.43904268       0.31959082
H        0.95645547      -0.63376818       1.72198715
H       -0.46755638      -1.92699693      -0.74532147
H       -1.72735102       1.61110141       0.45216101
H       -0.55545433       1.55712161       1.74984958
H       -0.08132172       2.14117688       0.14502534
16
Frame=4 idx=006872 GeodesicLength=0.3802674959945593 rxn_smarts="[C:1]([N:2]1[C:3]([H:11])([H:12])[C@:4]1([C:5](=[O:6])[C:7]([H:14])([H:15])[H:16])[H:13])([H:8])([H:9])[H:10]>>[C-:5]#[O+:6].[C:1]([N+:2]1([C:7]([H:14])([H:15])[H:16])[C:3]([H:11])([H:12])[C-:4]1[H:13])([H:8])([H:9])[H:10]"
C        0.92150133       0.32083033      -1.51288873
N        0.33591954       0.02268816      -0.22361278
C        0.94848524      -0.93041724       0.67306025
C       -0.36606874      -1.19253961       0.04562368
C       -1.65112432      -0.74645225       1.03553264
O       -2.61262148      -1.41748551       1.16687930
C       -0.70414494       1.39927646       0.68697932
H        1.56414230       1.19763858      -1.41260258
H        0.13449915       0.54176723      -2.23451208
H        1.51083183      -0.51738797      -1.89163501
H        1.83826784      -1.44095402       0.31912589
H        0.95746537      -0.63613269       1.72076898
H       -0.45602658      -1.91585570      -0.75725562
H       -1.76088923       1.60198823       0.55527538
H       -0.49024360       1.56967494       1.73527720
H       -0.16999373       2.14336106       0.09398416
16
Frame=5 idx=006872 GeodesicLength=0.4721811923645949 rxn_smarts="[C:1]([N:2]1[C:3]([H:11])([H:12])[C@:4]1([C:5](=[O:6])[C:7]([H:14])([H:15])[H:16])[H:13])([H:8])([H:9])[H:10]>>[C-:5]#[O+:6].[C:1]([N+:2]1([C:7]([H:14])([H:15])[H:16])[C:3]([H:11])([H:12])[C-:4]1[H:13])([H:8])([H:9])[H:10]"
C        0.94227804       0.31604188      -1.51417691
N        0.34599142       0.03129976      -0.22609280
C        0.94880607      -0.92856125       0.67104984
C       -0.36537699      -1.18490922       0.03848154
C       -1.66969889      -0.74210393       1.04200672
O       -2.63799751      -1.40402717       1.15518680
C       -0.72097864       1.38537929       0.68849737
H        1.59556472       1.18487396      -1.41316790
H        0.16366498       0.54362889      -2.24283943
H        1.52059767      -0.53263612      -1.88680962
H        1.83757742      -1.44244738       0.31887458
H        0.95783186      -0.63803000       1.71960220
H       -0.44453790      -1.90457284      -0.76932770
H       -1.78510575       1.59242084       0.66107860
H       -0.42561062       1.58526679       1.71266589
H       -0.26300589       2.13837649       0.04497081
16
Frame=6 idx=006872 GeodesicLength=0.5631687483444798 rxn_smarts="[C:1]([N:2]1[C:3]([H:11])([H:12])[C@:4]1([C:5](=[O:6])[C:7]([H:14])([H:15])[H:16])[H:13])([H:8])([H:9])[H:10]>>[C-:5]#[O+:6].[C:1]([N+:2]1([C:7]([H:14])([H:15])[H:16])[C:3]([H:11])([H:12])[C-:4]1[H:13])([H:8])([H:9])[H:10]"
C        0.96273986       0.31216433      -1.51490684
N        0.35589415       0.03990240      -0.22841225
C        0.94878792      -0.92663304       0.66929310
C       -0.36480844      -1.17735268       0.03127453
C       -1.68911654      -0.73775782       1.04848605
O       -2.66390263      -1.39032536       1.14340017
C       -0.73799322       1.37110351       0.69041683
H        1.62659550       1.17278999      -1.41255812
H        0.19255245       0.54682874      -2.25032417
H        1.52986172      -0.54660766      -1.88188357
H        1.83672170      -1.44358065       0.31891083
H        0.95753931      -0.63960503       1.71864668
H       -0.43294291      -1.89313538      -0.78150675
H       -1.79919361       1.58233422       0.76860928
H       -0.36252243       1.60404719       1.68209180
H       -0.36021284       2.12582723      -0.00153759
16
Frame=7 idx=006872 GeodesicLength=0.6534170694168805 rxn_smarts="[C:1]([N:2]1[C:3]([H:11])([H:12])[C@:4]1([C:5](=[O:6])[C:7]([H:14])([H:15])[H:16])[H:13])([H:8])([H:9])[H:10]>>[C-:5]#[O+:6].[C:1]([N+:2]1([C:7]([H:14])([H:15])[H:16])[C:3]([H:11])([H:12])[C-:4]1[H:13])([H:8])([H:9])[H:10]"
C        0.98282346       0.30926746      -1.51505459
N        0.36562100       0.04852564      -0.23053124
C        0.94845435      -0.92457985       0.66776175
C       -0.36444920      -1.16982971       0.02409629
C       -1.70954236      -0.73329335       1.05500857
O       -2.69035541      -1.37651652       1.13187174
C       -0.75475593       1.35646471       0.69308127
H        1.65752469       1.16121660      -1.41076729
H        0.22097523       0.55183170      -2.25667327
H        1.53827415      -0.55934186      -1.87702311
H        1.83572416      -1.44429025       0.31913966
H        0.95668896      -0.64077436       1.71782332
H       -0.42142554      -1.88148941      -0.79366135
H       -1.80279866       1.57125858       0.87559476
H       -0.30197491       1.62595482       1.64363856
H       -0.46078399       2.10559580      -0.04430507
16
Frame=8 idx=006872 GeodesicLength=0.7430735435643419 rxn_smarts="[C:1]([N:2]1[C:3]([H:11])([H:12])[C@:4]1([C:5](=[O:6])[C:7]([H:14])([H:15])[H:16])[H:13])([H:8])([H:9])[H:10]>>[C-:5]#[O+:6].[C:1]([N+:2]1([C:7]([H:14])([H:15])[H:16])[C:3]([H:11])([H:12])[C-:4]1[H:13])([H:8])([H:9])[H:10]"
C        1.00240662       0.30730680      -1.51487151
N        0.37519209       0.05718160      -0.23247307
C        0.94781025      -0.92236812       0.66662823
C       -0.36419073      -1.16247905       0.01697892
C       -1.73086403      -0.72866455       1.06157759
O       -2.71736180      -1.36242695       1.12033131
C       -0.77076129       1.34165515       0.69681408
H        1.68837149       1.15005952      -1.40805843
H        0.24879105       0.55878367      -2.26210523
H        1.54550955      -0.57101753      -1.87260950
H        1.83452498      -1.44454254       0.31969819
H        0.95528376      -0.64141016       1.71747904
H       -0.40984014      -1.86991491      -0.80586480
H       -1.79577963       1.55924070       0.98076544
H       -0.24526346       1.65090805       1.59811097
H       -0.56382869       2.07768833      -0.08240124
16
Frame=9 idx=006872 GeodesicLength=0.8323201898500018 rxn_smarts="[C:1]([N:2]1[C:3]([H:11])([H:12])[C@:4]1([C:5](=[O:6])[C:7]([H:14])([H:15])[H:16])[H:13])([H:8])([H:9])[H:10]>>[C-:5]#[O+:6].[C:1]([N+:2]1([C:7]([H:14])([H:15])[H:16])[C:3]([H:11])([H:12])[C-:4]1[H:13])([H:8])([H:9])[H:10]"
C        1.02139641       0.30600983      -1.51410352
N        0.38465536       0.06589535      -0.23425012
C        0.94710057      -0.91968215       0.66537404
C       -0.36394048      -1.15467867       0.01015239
C       -1.75305972      -0.72313665       1.06829205
O       -2.74453461      -1.34765130       1.10960651
C       -0.78576532       1.32637403       0.70148865
H        1.71943524       1.13823630      -1.40449920
H        0.27570772       0.56800368      -2.26558000
H        1.55111941      -0.58182848      -1.86855535
H        1.83338143      -1.44403340       0.31995289
H        0.95371389      -0.64127478       1.71660711
H       -0.39821359      -1.85755894      -0.81745222
H       -1.77955304       1.54570165       1.08052946
H       -0.19434084       1.67713685       1.54610995
H       -0.66710242       2.04248668      -0.11367264
16
Frame=10 idx=006872 GeodesicLength=0.9212476211220161 rxn_smarts="[C:1]([N:2]1[C:3]([H:11])([H:12])[C@:4]1([C:5](=[O:6])[C:7]([H:14])([H:15])[H:16])[H:13])([H:8])([H:9])[H:10]>>[C-:5]#[O+:6].[C:1]([N+:2]1([C:7]([H:14])([H:15])[H:16])[C:3]([H:11])([H:12])[C-:4]1[H:13])([H:8])([H:9])[H:10]"
C        1.03973417       0.30534459      -1.51337114
N        0.39406186       0.07473251      -0.23597596
C        0.94640889      -0.91661342       0.66440907
C       -0.36360258      -1.14697474       0.00363448
C       -1.77585975      -0.71722559       1.07548706
O       -2.77210018      -1.33227074       1.09914326
C       -0.79953830       1.31117293       0.70704794
H        1.75080085       1.12600750      -1.40072876
H        0.30167902       0.57946602      -2.26804048
H        1.55486466      -0.59210974      -1.86549886
H        1.83226695      -1.44297293       0.32032684
H        0.95218603      -0.64023689       1.71604412
H       -0.38652630      -1.84539633      -0.82865870
H       -1.75516518       1.53101414       1.17434750
H       -0.15032520       1.70457889       1.48956558
H       -0.76888494       2.00148380      -0.13773195
16
Frame=11 idx=006872 GeodesicLength=1.0102394510703032 rxn_smarts="[C:1]([N:2]1[C:3]([H:11])([H:12])[C@:4]1([C:5](=[O:6])[C:7]([H:14])([H:15])[H:16])[H:13])([H:8])([H:9])[H:10]>>[C-:5]#[O+:6].[C:1]([N+:2]1([C:7]([H:14])([H:15])[H:16])[C:3]([H:11])([H:12])[C-:4]1[H:13])([H:8])([H:9])[H:10]"
C        1.05746019       0.30511365      -1.51274690
N        0.40346713       0.08373817      -0.23771560
C        0.94597426      -0.91298822       0.66357159
C       -0.36312865      -1.13916879      -0.00243817
C       -1.79917276      -0.71088662       1.08350057
O       -2.80013967      -1.31582516       1.08899141
C       -0.81218688       1.29591303       0.71311128
H        1.78268361       1.11286612      -1.39707146
H        0.32666297       0.59306916      -2.26936664
H        1.55667103      -0.60197624      -1.86345484
H        1.83142953      -1.44120641       0.32064570
H        0.95109537      -0.63820067       1.71549457
H       -0.37485009      -1.83317302      -0.83916467
H       -1.72432927       1.51495128       1.26112228
H       -0.11407902       1.73192562       1.42974885
H       -0.86755776       1.95584811      -0.15422797
16
Frame=12 idx=006872 GeodesicLength=1.09936699957162 rxn_smarts="[C:1]([N:2]1[C:3]([H:11])([H:12])[C@:4]1([C:5](=[O:6])[C:7]([H:14])([H:15])[H:16])[H:13])([H:8])([H:9])[H:10]>>[C-:5]#[O+:6].[C:1]([N+:2]1([C:7]([H:14])([H:15])[H:16])[C:3]([H:11])([H:12])[C-:4]1[H:13])([H:8])([H:9])[H:10]"
C        1.07462112       0.30512204      -1.51238048
N        0.41289205       0.09297242      -0.23954258
C        0.94588448      -0.90873908       0.66279747
C       -0.36240038      -1.13124469      -0.00808201
C       -1.82268165      -0.70419737       1.09267382
O       -2.82855241      -1.29795078       1.07905787
C       -0.82394393       1.28064650       0.71938481
H        1.81501919       1.09858631      -1.39377624
H        0.35083943       0.60849655      -2.26979433
H        1.55660401      -0.61162442      -1.86248380
H        1.83088808      -1.43876986       0.32084471
H        0.95060321      -0.63509940       1.71493754
H       -0.36311385      -1.82094906      -0.84900098
H       -1.68854504       1.49758181       1.34059685
H       -0.08606673       1.75827903       1.36819025
H       -0.96204760       1.90689001      -0.16342290
16
Frame=13 idx=006872 GeodesicLength=1.1887581057187584 rxn_smarts="[C:1]([N:2]1[C:3]([H:11])([H:12])[C@:4]1([C:5](=[O:6])[C:7]([H:14])([H:15])[H:16])[H:13])([H:8])([H:9])[H:10]>>[C-:5]#[O+:6].[C:1]([N+:2]1([C:7]([H:14])([H:15])[H:16])[C:3]([H:11])([H:12])[C-:4]1[H:13])([H:8])([H:9])[H:10]"
C        1.09131807       0.30521369      -1.51230886
N        0.42234243       0.10249784      -0.24152249
C        0.94620086      -0.90375722       0.66190428
C       -0.36141937      -1.12304450      -0.01327955
C       -1.84632397      -0.69715877       1.10327263
O       -2.85720814      -1.27862017       1.06967842
C       -0.83507484       1.26523129       0.72556043
H        1.84779855       1.08293455      -1.39106906
H        0.37440095       0.62534062      -2.26938437
H        1.55485691      -0.62107582      -1.86246479
H        1.83069674      -1.43559312       0.32074775
H        0.95081477      -0.63093104       1.71410303
H       -0.35137094      -1.80856460      -0.85802215
H       -1.64955415       1.47878086       1.41225180
H       -0.06625313       1.78261004       1.30617790
H       -1.05122473       1.85613637      -0.16564497
16
Frame=14 idx=006872 GeodesicLength=1.2783539663274024 rxn_smarts="[C:1]([N:2]1[C:3]([H:11])([H:12])[C@:4]1([C:5](=[O:6])[C:7]([H:14])([H:15])[H:16])[H:13])([H:8])([H:9])[H:10]>>[C-:5]#[O+:6].[C:1]([N+:2]1([C:7]([H:14])([H:15])[H:16])[C:3]([H:11])([H:12])[C-:4]1[H:13])([H:8])([H:9])[H:10]"
C        1.10763369       0.30533342      -1.51260675
N        0.43178430       0.11234468      -0.24371327
C        0.94688991      -0.89810591       0.66092198
C       -0.36016008      -1.11470640      -0.01817900
C       -1.86993557      -0.69002938       1.11542724
O       -2.88607584      -1.25766051       1.06075608
C       -0.84592963       1.24975227       0.73138799
H        1.88081516       1.06608389      -1.38899546
H        0.39763788       0.64322045      -2.26852921
H        1.55173143      -0.63036500      -1.86328809
H        1.83079687      -1.43180545       0.32045625
H        0.95168611      -0.62577277       1.71312825
H       -0.33958280      -1.79623070      -0.86647029
H       -1.60797398       1.45872912       1.47708399
H       -0.05423153       1.80472218       1.24472893
H       -1.13508593       1.80449010      -0.16210864
16
Frame=15 idx=006872 GeodesicLength=1.368250796686371 rxn_smarts="[C:1]([N:2]1[C:3]([H:11])([H:12])[C@:4]1([C:5](=[O:6])[C:7]([H:14])([H:15])[H:16])[H:13])([H:8])([H:9])[H:10]>>[C-:5]#[O+:6].[C:1]([N+:2]1([C:7]([H:14])([H:15])[H:16])[C:3]([H:11])([H:12])[C-:4]1[H:13])([H:8])([H:9])[H:10]"
C        1.12367123       0.30545408      -1.51324098
N        0.44119955       0.12253011      -0.24612820
C        0.94793497      -0.89180371       0.65978871
C       -0.35864974      -1.10620032      -0.02284472
C       -1.89349511      -0.68289681       1.12929545
O       -2.91510886      -1.23495637       1.05245475
C       -0.85675203       1.23407926       0.73672876
H        1.91396136       1.04808742      -1.38754527
H        0.42078273       0.66183802      -2.26736248
H        1.54750273      -0.63940498      -1.86479290
H        1.83118478      -1.42743291       0.31993515
H        0.95318809      -0.61973698       1.71194689
H       -0.32777680      -1.78387015      -0.87441616
H       -1.56459542       1.43740595       1.53541194
H       -0.04935581       1.82427461       1.18449393
H       -1.21369166       1.75263278      -0.15372486
16
Frame=16 idx=006872 GeodesicLength=1.4584525457985003 rxn_smarts="[C:1]([N:2]1[C:3]([H:11])([H:12])[C@:4]1([C:5](=[O:6])[C:7]([H:14])([H:15])[H:16])[H:13])([H:8])([H:9])[H:10]>>[C-:5]#[O+:6].[C:1]([N+:2]1([C:7]([H:14])([H:15])[H:16])[C:3]([H:11])([H:12])[C-:4]1[H:13])([H:8])([H:9])[H:10]"
C        1.13950534       0.30557776      -1.51414074
N        0.45055636       0.13306620      -0.24877663
C        0.94926160      -0.88486870       0.65845450
C       -0.35693514      -1.09752127      -0.02738126
C       -1.91699342      -0.67582748       1.14491313
O       -2.94421346      -1.21047772       1.04498303
C       -0.86774066       1.21812028       0.74144507
H        1.94707549       1.02909336      -1.38662615
H        0.44404835       0.68091010      -2.26599147
H        1.54243217      -0.64808966      -1.86677378
H        1.83178581      -1.42248134       0.31918303
H        0.95521248      -0.61290808       1.71050249
H       -0.31598705      -1.77144189      -0.88197657
H       -1.51984097       1.41483609       1.58765956
H       -0.05090105       1.84104041       1.12599389
H       -1.28726584       1.70097195      -0.14146811
