15
Frame=0 idx=009902 GeodesicLength=0.0 rxn_smarts="[C:1]([C@@:2]1([H:11])[C@:3]([C:4]#[N:5])([H:12])[N:6]1[C:7]([H:13])([H:14])[H:15])([H:8])([H:9])[H:10]>>[C:1]([C@@:2]1([H:11])[C:3]([C:4]#[N:5])=[N+:6]1[C-:7]([H:14])[H:15])([H:8])([H:9])[H:10].[H:12][H:13]"
C       -2.02494855       0.10738167       0.21834087
C       -0.68053672      -0.27860553      -0.32991901
C        0.45168893       0.65899019      -0.55027299
C        0.57570193       2.05244799      -0.68611170
N        0.69208940       3.18671013      -0.84910703
N        0.47141028      -0.14549044       0.54295054
C        1.37646105      -1.01226026       0.95347328
H       -1.94457182       0.98332302       0.86204358
H       -2.70141138       0.34766182      -0.60300415
H       -2.46579053      -0.71305117       0.78819343
H       -0.65955219      -1.16610250      -0.96745304
H        1.60945395      -0.36958393      -1.20598856
H        1.94289625      -1.06400732      -0.80914625
H        1.02860221      -1.96219696       1.34155233
H        2.32850724      -0.62521670       1.29444875
15
Frame=1 idx=009902 GeodesicLength=0.0563947760691599 rxn_smarts="[C:1]([C@@:2]1([H:11])[C@:3]([C:4]#[N:5])([H:12])[N:6]1[C:7]([H:13])([H:14])[H:15])([H:8])([H:9])[H:10]>>[C:1]([C@@:2]1([H:11])[C:3]([C:4]#[N:5])=[N+:6]1[C-:7]([H:14])[H:15])([H:8])([H:9])[H:10].[H:12][H:13]"
C       -2.02379009       0.11279889       0.22016783
C       -0.68324098      -0.28225426      -0.33108677
C        0.45128218       0.65041492      -0.56182766
C        0.56750528       2.04633118      -0.69060519
N        0.68088928       3.18263994      -0.84038799
N        0.47029045      -0.14835344       0.53932709
C        1.37949906      -1.01779588       0.94514605
H       -1.93751815       0.99192689       0.85878964
H       -2.70210704       0.35248308      -0.59987411
H       -2.46671657      -0.70232852       0.79589309
H       -0.66880972      -1.17213750      -0.96502109
H        1.61844997      -0.36286359      -1.21425395
H        1.96509134      -1.06042810      -0.80161990
H        1.03089137      -1.96791725       1.33230917
H        2.31828364      -0.62251636       1.31304379
15
Frame=2 idx=009902 GeodesicLength=0.11279338531584769 rxn_smarts="[C:1]([C@@:2]1([H:11])[C@:3]([C:4]#[N:5])([H:12])[N:6]1[C:7]([H:13])([H:14])[H:15])([H:8])([H:9])[H:10]>>[C:1]([C@@:2]1([H:11])[C:3]([C:4]#[N:5])=[N+:6]1[C-:7]([H:14])[H:15])([H:8])([H:9])[H:10].[H:12][H:13]"
C       -2.02259294       0.11820344       0.22206653
C       -0.68597040      -0.28585601      -0.33219368
C        0.45079223       0.64182679      -0.57334837
C        0.55933404       2.04012190      -0.69523684
N        0.66976339       3.17827447      -0.83211380
N        0.46917291      -0.15117929       0.53571045
C        1.38260801      -1.02317425       0.93689440
H       -1.93042330       1.00042348       0.85562634
H       -2.70278682       0.35734756      -0.59663024
H       -2.46752555      -0.69162191       0.80360431
H       -0.67813239      -1.17811171      -0.96245158
H        1.62747627      -0.35572126      -1.22253157
H        1.98756244      -1.05642930      -0.79367063
H        1.03325744      -1.97369264       1.32265321
H        2.30746466      -0.62041126       1.33162146
15
Frame=3 idx=009902 GeodesicLength=0.16915706959009993 rxn_smarts="[C:1]([C@@:2]1([H:11])[C@:3]([C:4]#[N:5])([H:12])[N:6]1[C:7]([H:13])([H:14])[H:15])([H:8])([H:9])[H:10]>>[C:1]([C@@:2]1([H:11])[C:3]([C:4]#[N:5])=[N+:6]1[C-:7]([H:14])[H:15])([H:8])([H:9])[H:10].[H:12][H:13]"
C       -2.02136813       0.12357823       0.22403417
C       -0.68872504      -0.28940576      -0.33323190
C        0.45021415       0.63323874      -0.58481385
C        0.55117626       2.03384033      -0.69996167
N        0.65880158       3.17362529      -0.82434480
N        0.46805021      -0.15396005       0.53211864
C        1.38578677      -1.02838514       0.92872880
H       -1.92331364       1.00878708       0.85256708
H       -2.70345247       0.36224214      -0.59328196
H       -2.46822816      -0.68096802       0.81130113
H       -0.68750733      -1.18401348      -0.95974428
H        1.63651056      -0.34813517      -1.23081485
H        2.01026125      -1.05202112      -0.78528438
H        1.03570186      -1.97950227       1.31261896
H        2.29609213      -0.61892080       1.35010892
15
Frame=4 idx=009902 GeodesicLength=0.22543675520987905 rxn_smarts="[C:1]([C@@:2]1([H:11])[C@:3]([C:4]#[N:5])([H:12])[N:6]1[C:7]([H:13])([H:14])[H:15])([H:8])([H:9])[H:10]>>[C:1]([C@@:2]1([H:11])[C:3]([C:4]#[N:5])=[N+:6]1[C-:7]([H:14])[H:15])([H:8])([H:9])[H:10].[H:12][H:13]"
C       -2.02012652       0.12890725       0.22606593
C       -0.69150395      -0.29289965      -0.33419453
C        0.44954432       0.62466200      -0.59620558
C        0.54302053       2.02750356      -0.70474212
N        0.64808734       3.16870925      -0.81711927
N        0.46691591      -0.15668702       0.52856854
C        1.38903591      -1.03341711       0.92065836
H       -1.91621528       1.01699470       0.84962198
H       -2.70410496       0.36715361      -0.58984159
H       -2.46883670      -0.67040120       0.81895674
H       -0.69692022      -1.18983383      -0.95689851
H        1.64552765      -0.34009016      -1.23909790
H        2.03313581      -1.04722408      -0.77645312
H        1.03822510      -1.98531831       1.30225077
H        2.28421507      -0.61805902       1.36843030
15
Frame=5 idx=009902 GeodesicLength=0.2816297131083382 rxn_smarts="[C:1]([C@@:2]1([H:11])[C@:3]([C:4]#[N:5])([H:12])[N:6]1[C:7]([H:13])([H:14])[H:15])([H:8])([H:9])[H:10]>>[C:1]([C@@:2]1([H:11])[C:3]([C:4]#[N:5])=[N+:6]1[C-:7]([H:14])[H:15])([H:8])([H:9])[H:10].[H:12][H:13]"
C       -2.01887799       0.13417503       0.22815377
C       -0.69430489      -0.29633480      -0.33507684
C        0.44878037       0.61610764      -0.60750844
C        0.53485867       2.02112791      -0.70954657
N        0.63769289       3.16355319      -0.81044723
N        0.46576491      -0.15935091       0.52507495
C        1.39235641      -1.03825800       0.91269297
H       -1.90915316       1.02502624       0.84679548
H       -2.70474411       0.37206695      -0.58632560
H       -2.46936320      -0.65995440       0.82654390
H       -0.70635572      -1.19556638      -0.95391446
H        1.65450569      -0.33156784      -1.24738251
H        2.05612027      -1.04208953      -0.76716809
H        1.04082775      -1.99110421       1.29161025
H        2.27189212      -0.61783089       1.38649843
15
Frame=6 idx=009902 GeodesicLength=0.3377544918251472 rxn_smarts="[C:1]([C@@:2]1([H:11])[C@:3]([C:4]#[N:5])([H:12])[N:6]1[C:7]([H:13])([H:14])[H:15])([H:8])([H:9])[H:10]>>[C:1]([C@@:2]1([H:11])[C:3]([C:4]#[N:5])=[N+:6]1[C-:7]([H:14])[H:15])([H:8])([H:9])[H:10].[H:12][H:13]"
C       -2.01762937       0.13936620       0.23028472
C       -0.69712210      -0.29970403      -0.33588274
C        0.44792427       0.60759352      -0.61871153
C        0.52668451       2.01473658      -0.71434096
N        0.62767440       3.15816689      -0.80430659
N        0.46459714      -0.16193817       0.52164273
C        1.39574838      -1.04288500       0.90483512
H       -1.90214812       1.03285939       0.84409282
H       -2.70536916       0.37696719      -0.58275514
H       -2.46981603      -0.64966206       0.83402862
H       -0.71579177      -1.20119819      -0.95080228
H        1.66339343      -0.32256017      -1.25569420
H        2.07914711      -1.03669534      -0.75745198
H        1.04349146      -1.99682044       1.28080321
H        2.25921586      -0.61822638       1.40425819
15
Frame=7 idx=009902 GeodesicLength=0.3940378524198071 rxn_smarts="[C:1]([C@@:2]1([H:11])[C@:3]([C:4]#[N:5])([H:12])[N:6]1[C:7]([H:13])([H:14])[H:15])([H:8])([H:9])[H:10]>>[C:1]([C@@:2]1([H:11])[C:3]([C:4]#[N:5])=[N+:6]1[C-:7]([H:14])[H:15])([H:8])([H:9])[H:10].[H:12][H:13]"
C       -2.01638071       0.14446225       0.23244277
C       -0.69994972      -0.30302516      -0.33662555
C        0.44698317       0.59909962      -0.62982452
C        0.51850676       2.00830689      -0.71910449
N        0.61815134       3.15257788      -0.79852485
N        0.46341445      -0.16447910       0.51825625
C        1.39920432      -1.04733358       0.89710201
H       -1.89520275       1.04045545       0.84152844
H       -2.70595975       0.38187384      -0.57914638
H       -2.47021867      -0.63956645       0.84135247
H       -0.72522393      -1.20674594      -0.94757933
H        1.67213527      -0.31305890      -1.26410378
H        2.10205995      -1.03124433      -0.74728642
H        1.04626703      -2.00235867       1.26990346
H        2.24621324      -0.61896379       1.42160993
15
Frame=8 idx=009902 GeodesicLength=0.45030851382219816 rxn_smarts="[C:1]([C@@:2]1([H:11])[C@:3]([C:4]#[N:5])([H:12])[N:6]1[C:7]([H:13])([H:14])[H:15])([H:8])([H:9])[H:10]>>[C:1]([C@@:2]1([H:11])[C:3]([C:4]#[N:5])=[N+:6]1[C-:7]([H:14])[H:15])([H:8])([H:9])[H:10].[H:12][H:13]"
C       -2.01512744       0.14948850       0.23462507
C       -0.70278036      -0.30628678      -0.33729430
C        0.44596780       0.59063961      -0.64083498
C        0.51033531       2.00186951      -0.72385350
N        0.60893197       3.14683018      -0.79319975
N        0.46222202      -0.16694539       0.51494126
C        1.40273407      -1.05157879       0.88950286
H       -1.88831464       1.04787702       0.83906108
H       -2.70652196       0.38676368      -0.57551655
H       -2.47055577      -0.62961638       0.84856687
H       -0.73463648      -1.21220829      -0.94422634
H        1.68074727      -0.30305188      -1.27256755
H        2.12495909      -1.02568797      -0.73667014
H        1.04910255      -2.00779774       1.25889141
H        2.23293657      -0.62029529       1.43857454
15
Frame=9 idx=009902 GeodesicLength=0.506296233753773 rxn_smarts="[C:1]([C@@:2]1([H:11])[C@:3]([C:4]#[N:5])([H:12])[N:6]1[C:7]([H:13])([H:14])[H:15])([H:8])([H:9])[H:10]>>[C:1]([C@@:2]1([H:11])[C:3]([C:4]#[N:5])=[N+:6]1[C-:7]([H:14])[H:15])([H:8])([H:9])[H:10].[H:12][H:13]"
C       -2.01385635       0.15447324       0.23683991
C       -0.70560892      -0.30948376      -0.33788420
C        0.44489084       0.58220210      -0.65175352
C        0.50218814       1.99539138      -0.72861965
N        0.59986831       3.14090923      -0.78835930
N        0.46102760      -0.16933303       0.51169079
C        1.40633381      -1.05561868       0.88201480
H       -1.88145761       1.05516812       0.83666630
H       -2.70704626       0.39164729      -0.57185209
H       -2.47081650      -0.61975498       0.85571053
H       -0.74403640      -1.21757553      -0.94072585
H        1.68923289      -0.29260523      -1.28109160
H        2.14792984      -1.01989736      -0.72555035
H        1.05199265      -2.01321036       1.24768464
H        2.21935795      -0.62231243       1.45522957
15
Frame=10 idx=009902 GeodesicLength=0.5624899211149379 rxn_smarts="[C:1]([C@@:2]1([H:11])[C@:3]([C:4]#[N:5])([H:12])[N:6]1[C:7]([H:13])([H:14])[H:15])([H:8])([H:9])[H:10]>>[C:1]([C@@:2]1([H:11])[C:3]([C:4]#[N:5])=[N+:6]1[C-:7]([H:14])[H:15])([H:8])([H:9])[H:10].[H:12][H:13]"
C       -2.01256864       0.15939281       0.23906526
C       -0.70842556      -0.31263074      -0.33840945
C        0.44376291       0.57378001      -0.66256284
C        0.49407591       1.98888779      -0.73333002
N        0.59104775       3.13485150      -0.78389547
N        0.45983376      -0.17167691       0.50850165
C        1.40999751      -1.05949525       0.87467732
H       -1.87463242       1.06225128       0.83440365
H       -2.70750172       0.39658926      -0.56817809
H       -2.47104413      -0.61005472       0.86267305
H       -0.75340111      -1.22285711      -0.93711508
H        1.69750476      -0.28165038      -1.28976735
H        2.17082778      -1.01419317      -0.71391437
H        1.05496670      -2.01845993       1.23641359
H        2.20555650      -0.62473445       1.47143816
15
Frame=11 idx=009902 GeodesicLength=0.6185576085307658 rxn_smarts="[C:1]([C@@:2]1([H:11])[C@:3]([C:4]#[N:5])([H:12])[N:6]1[C:7]([H:13])([H:14])[H:15])([H:8])([H:9])[H:10]>>[C:1]([C@@:2]1([H:11])[C:3]([C:4]#[N:5])=[N+:6]1[C-:7]([H:14])[H:15])([H:8])([H:9])[H:10].[H:12][H:13]"
C       -2.01125561       0.16427228       0.24130699
C       -0.71122724      -0.31572192      -0.33886518
C        0.44259212       0.56537454      -0.67327560
C        0.48600564       1.98235659      -0.73803278
N        0.58233972       3.12867295      -0.77985150
N        0.45864685      -0.17395797       0.50537906
C        1.41372843      -1.06319409       0.86747879
H       -1.86782547       1.06919079       0.83223708
H       -2.70789362       0.40156846      -0.56449372
H       -2.47121897      -0.60046244       0.86951823
H       -0.76273489      -1.22805479      -0.93337520
H        1.70555634      -0.27025461      -1.29859230
H        2.19376275      -1.00842133      -0.70173876
H        1.05800046      -2.02364083       1.22501069
H        2.19152350      -0.62772765       1.48729419
15
Frame=12 idx=009902 GeodesicLength=0.6745785166018979 rxn_smarts="[C:1]([C@@:2]1([H:11])[C@:3]([C:4]#[N:5])([H:12])[N:6]1[C:7]([H:13])([H:14])[H:15])([H:8])([H:9])[H:10]>>[C:1]([C@@:2]1([H:11])[C:3]([C:4]#[N:5])=[N+:6]1[C-:7]([H:14])[H:15])([H:8])([H:9])[H:10].[H:12][H:13]"
C       -2.00990914       0.16912628       0.24356504
C       -0.71401423      -0.31876271      -0.33925925
C        0.44138262       0.55696894      -0.68391042
C        0.47798750       1.97578163      -0.74275627
N        0.57369788       3.12237594      -0.77615302
N        0.45747207      -0.17618578       0.50230517
C        1.41752067      -1.06672872       0.86041642
H       -1.86102216       1.07602676       0.83012420
H       -2.70822772       0.40656325      -0.56079632
H       -2.47131981      -0.59093252       0.87629410
H       -0.77204699      -1.23318069      -0.92950036
H        1.71334817      -0.25843254      -1.30762891
H        2.21679886      -1.00258225      -0.68895858
H        1.06110328      -2.02876967       1.21342713
H        2.17722900      -0.63126794       1.50283107
15
Frame=13 idx=009902 GeodesicLength=0.7305642973665841 rxn_smarts="[C:1]([C@@:2]1([H:11])[C@:3]([C:4]#[N:5])([H:12])[N:6]1[C:7]([H:13])([H:14])[H:15])([H:8])([H:9])[H:10]>>[C:1]([C@@:2]1([H:11])[C:3]([C:4]#[N:5])=[N+:6]1[C-:7]([H:14])[H:15])([H:8])([H:9])[H:10].[H:12][H:13]"
C       -2.00851285       0.17397983       0.24584529
C       -0.71678141      -0.32175631      -0.33959156
C        0.44014802       0.54854619      -0.69447700
C        0.47004259       1.96914718      -0.74752471
N        0.56498589       3.11596440      -0.77281639
N        0.45632106      -0.17837109       0.49927203
C        1.42137043      -1.07012220       0.85348950
H       -1.85418668       1.08278472       0.82806785
H       -2.70848610       0.41161281      -0.55707699
H       -2.47134216      -0.58142402       0.88301873
H       -0.78134538      -1.23824049      -0.92548369
H        1.72083862      -0.24622478      -1.31693459
H        2.24003293      -0.99661717      -0.67548794
H        1.06427875      -2.03389214       1.20158219
H        2.16263631      -0.63538695       1.51811729
15
Frame=14 idx=009902 GeodesicLength=0.7865731647439903 rxn_smarts="[C:1]([C@@:2]1([H:11])[C@:3]([C:4]#[N:5])([H:12])[N:6]1[C:7]([H:13])([H:14])[H:15])([H:8])([H:9])[H:10]>>[C:1]([C@@:2]1([H:11])[C:3]([C:4]#[N:5])=[N+:6]1[C-:7]([H:14])[H:15])([H:8])([H:9])[H:10].[H:12][H:13]"
C       -2.00705577       0.17885116       0.24815386
C       -0.71953076      -0.32470830      -0.33986650
C        0.43889201       0.54009002      -0.70499483
C        0.46218016       1.96244298      -0.75237260
N        0.55613921       3.10944444      -0.76982499
N        0.45520283      -0.18052429       0.49626424
C        1.42527950      -1.07339088       0.84669470
H       -1.84729030       1.08949591       0.82605490
H       -2.70866927       0.41673004      -0.55332500
H       -2.47127254      -0.57190167       0.88972461
H       -0.79064477      -1.24324894      -0.92131495
H        1.72796936      -0.23366221      -1.32657970
H        2.26356749      -0.99046874      -0.66123707
H        1.06754274      -2.03904810       1.18939979
H        2.14769012      -0.64010140       1.53322356
15
Frame=15 idx=009902 GeodesicLength=0.8425722474734998 rxn_smarts="[C:1]([C@@:2]1([H:11])[C@:3]([C:4]#[N:5])([H:12])[N:6]1[C:7]([H:13])([H:14])[H:15])([H:8])([H:9])[H:10]>>[C:1]([C@@:2]1([H:11])[C:3]([C:4]#[N:5])=[N+:6]1[C-:7]([H:14])[H:15])([H:8])([H:9])[H:10].[H:12][H:13]"
C       -2.00552697       0.18376082       0.25051152
C       -0.72226744      -0.32762241      -0.34007808
C        0.43761283       0.53157771      -0.71548322
C        0.45440536       1.95564336      -0.75734445
N        0.54712240       3.10279127      -0.76721904
N        0.45411987      -0.18265087       0.49326833
C        1.42923786      -1.07654350       0.84002033
H       -1.84030212       1.09618669       0.82408610
H       -2.70877169       0.42192646      -0.54951049
H       -2.47110106      -0.56231985       0.89645959
H       -0.79996620      -1.24821240      -0.91697317
H        1.73466574      -0.22082953      -1.33665359
H        2.28757258      -0.98392786      -0.64605766
H        1.07091248      -2.04429796       1.17671606
H        2.13228635      -0.64548192       1.54825778
15
Frame=16 idx=009902 GeodesicLength=0.8985887914624511 rxn_smarts="[C:1]([C@@:2]1([H:11])[C@:3]([C:4]#[N:5])([H:12])[N:6]1[C:7]([H:13])([H:14])[H:15])([H:8])([H:9])[H:10]>>[C:1]([C@@:2]1([H:11])[C:3]([C:4]#[N:5])=[N+:6]1[C-:7]([H:14])[H:15])([H:8])([H:9])[H:10].[H:12][H:13]"
C       -2.00393122       0.18868985       0.25289275
C       -0.72497817      -0.33049248      -0.34023453
C        0.43631519       0.52302771      -0.72591555
C        0.44671101       1.94876714      -0.76237083
N        0.53798634       3.09602315      -0.76492080
N        0.45307055      -0.18474689       0.49029068
C        1.43325384      -1.07956595       0.83347921
H       -1.83325317       1.10282680       0.82215539
H       -2.70878785       0.42718946      -0.54566387
H       -2.47083299      -0.55271846       0.90316441
H       -0.80927182      -1.25311303      -0.91248021
H        1.74089485      -0.20769119      -1.34718964
H        2.31190932      -0.97719956      -0.62996770
H        1.07438325      -2.04954891       1.16369587
H        2.11653087      -0.65144763       1.56306482
