19
Frame=0 idx=010905 GeodesicLength=0.0 rxn_smarts="[C:1]([C:2]([C@@:3]1([H:13])[C:4]([H:14])([H:15])[C:5]([H:16])([H:17])[C:6]([H:18])([H:19])[O:7]1)([H:11])[H:12])([H:8])([H:9])[H:10]>>[C:1]([C:2]([C-:3]=[O+:7][C:6]([C:5]([C:4]([H:13])([H:14])[H:15])([H:16])[H:17])([H:18])[H:19])([H:11])[H:12])([H:8])([H:9])[H:10]"
C        2.56077978      -0.50991563       0.11441417
C        1.33065268       0.25562349      -0.37338456
C        0.44244717       0.52494491       0.82479332
C       -1.26869555       1.25420948      -0.30677816
C       -2.07408415      -0.00265365      -0.06792401
C       -1.14379694      -1.13742736       0.36073979
O       -0.25624113      -0.53577873       1.29738715
H        3.06196455       0.03431802       0.91626572
H        2.27873514      -1.48937155       0.50481928
H        3.27069586      -0.66112809      -0.70040857
H        1.63765682       1.22307311      -0.77687429
H        0.87107739      -0.30175208      -1.20010125
H       -0.37535112       1.47739949       0.63276709
H       -1.82313082       2.16788783      -0.08599124
H       -0.80709450       1.32818580      -1.28742786
H       -2.62351229      -0.29027969      -0.96802016
H       -2.80465709       0.16929222       0.72398973
H       -1.67094701      -1.93738081       0.87975704
H       -0.60649875      -1.56924685      -0.48802326
19
Frame=1 idx=010905 GeodesicLength=0.06121271604443832 rxn_smarts="[C:1]([C:2]([C@@:3]1([H:13])[C:4]([H:14])([H:15])[C:5]([H:16])([H:17])[C:6]([H:18])([H:19])[O:7]1)([H:11])[H:12])([H:8])([H:9])[H:10]>>[C:1]([C:2]([C-:3]=[O+:7][C:6]([C:5]([C:4]([H:13])([H:14])[H:15])([H:16])[H:17])([H:18])[H:19])([H:11])[H:12])([H:8])([H:9])[H:10]"
C        2.57000484      -0.50960199       0.11851255
C        1.34320387       0.25762261      -0.37479116
C        0.44263725       0.52011827       0.81418276
C       -1.27112037       1.25082047      -0.30912429
C       -2.08318026      -0.00063140      -0.05956794
C       -1.15149105      -1.13880799       0.35533535
O       -0.24944085      -0.54537187       1.28475025
H        3.06290549       0.02955394       0.92896023
H        2.28637009      -1.49265314       0.49860063
H        3.28775492      -0.65353581      -0.69070825
H        1.65353620       1.22675495      -0.77175755
H        0.88644719      -0.29607831      -1.20524738
H       -0.38215904       1.48916512       0.64171226
H       -1.82645438       2.16791112      -0.10523082
H       -0.82171265       1.31332212      -1.29682787
H       -2.64707183      -0.28642980      -0.95113761
H       -2.80116447       0.17602539       0.74285301
H       -1.67578056      -1.93795605       0.87868693
H       -0.62328437      -1.57022763      -0.49920110
19
Frame=2 idx=010905 GeodesicLength=0.12229829104567164 rxn_smarts="[C:1]([C:2]([C@@:3]1([H:13])[C:4]([H:14])([H:15])[C:5]([H:16])([H:17])[C:6]([H:18])([H:19])[O:7]1)([H:11])[H:12])([H:8])([H:9])[H:10]>>[C:1]([C:2]([C-:3]=[O+:7][C:6]([C:5]([C:4]([H:13])([H:14])[H:15])([H:16])[H:17])([H:18])[H:19])([H:11])[H:12])([H:8])([H:9])[H:10]"
C        2.57913174      -0.50938636       0.12259706
C        1.35585671       0.25975656      -0.37624289
C        0.44282965       0.51543351       0.80324792
C       -1.27359772       1.24744251      -0.31156621
C       -2.09211264       0.00138671      -0.05121901
C       -1.15919663      -1.14012553       0.35005334
O       -0.24260813      -0.55480672       1.27178477
H        3.06355949       0.02442475       0.94171783
H        2.29386739      -1.49599944       0.49209531
H        3.30478106      -0.64598808      -0.68078902
H        1.66965638       1.23057035      -0.76643427
H        0.90193877      -0.29003843      -1.21056212
H       -0.38922055       1.50088708       0.65063866
H       -1.82983170       2.16758688      -0.12436254
H       -0.83663432       1.29838758      -1.30612297
H       -2.67024778      -0.28258008      -0.93407822
H       -2.79738574       0.18269104       0.76146634
H       -1.68054468      -1.93836150       0.87792663
H       -0.64024129      -1.57128084      -0.51015059
19
Frame=3 idx=010905 GeodesicLength=0.18326346974111563 rxn_smarts="[C:1]([C:2]([C@@:3]1([H:13])[C:4]([H:14])([H:15])[C:5]([H:16])([H:17])[C:6]([H:18])([H:19])[O:7]1)([H:11])[H:12])([H:8])([H:9])[H:10]>>[C:1]([C:2]([C-:3]=[O+:7][C:6]([C:5]([C:4]([H:13])([H:14])[H:15])([H:16])[H:17])([H:18])[H:19])([H:11])[H:12])([H:8])([H:9])[H:10]"
C        2.58815819      -0.50927391       0.12666438
C        1.36861550       0.26203150      -0.37773396
C        0.44302838       0.51088820       0.79198450
C       -1.27612992       1.24407128      -0.31411558
C       -2.10088132       0.00339804      -0.04288037
C       -1.16691050      -1.14138183       0.34489882
O       -0.23574562      -0.56407701       1.25848816
H        3.06391929       0.01891497       0.95453296
H        2.30122495      -1.49941087       0.48529061
H        3.32177042      -0.63849350      -0.67064550
H        1.68602445       1.23452535      -0.76088005
H        0.91756531      -0.28360973      -1.21605015
H       -0.39653824       1.51257548       0.65953325
H       -1.83327075       2.16692006      -0.14338119
H       -0.85185975       1.28338387      -1.31531430
H       -2.69304141      -0.27874152      -0.91684781
H       -2.79332791       0.18929176       0.77982905
H       -1.68522796      -1.93859384       0.87748922
H       -0.65737312      -1.57241831      -0.52086204
19
Frame=4 idx=010905 GeodesicLength=0.24411548003422667 rxn_smarts="[C:1]([C:2]([C@@:3]1([H:13])[C:4]([H:14])([H:15])[C:5]([H:16])([H:17])[C:6]([H:18])([H:19])[O:7]1)([H:11])[H:12])([H:8])([H:9])[H:10]>>[C:1]([C:2]([C-:3]=[O+:7][C:6]([C:5]([C:4]([H:13])([H:14])[H:15])([H:16])[H:17])([H:18])[H:19])([H:11])[H:12])([H:8])([H:9])[H:10]"
C        2.59708169      -0.50927129       0.13071205
C        1.38148536       0.26445343      -0.37925728
C        0.44323735       0.50647994       0.78038807
C       -1.27871870       1.24070204      -0.31678418
C       -2.10948772       0.00540061      -0.03455292
C       -1.17462969      -1.14257785       0.33987862
O       -0.22885694      -0.57317765       1.24485725
H        3.06397552       0.01300474       0.96739982
H        2.30844048      -1.50288832       0.47816868
H        3.33872259      -0.63105290      -0.66027313
H        1.70264731       1.23862556      -0.75506768
H        0.93334128      -0.27676917      -1.22171440
H       -0.40411512       1.52424200       0.66838241
H       -1.83677866       2.16591438      -0.16228632
H       -0.86738814       1.26830916      -1.32440395
H       -2.71545615      -0.27492483      -0.89945018
H       -2.78899637       0.19583242       0.79794001
H       -1.68981917      -1.93865072       0.87738793
H       -0.67468493      -1.57365154      -0.53132479
19
Frame=5 idx=010905 GeodesicLength=0.30485931652190273 rxn_smarts="[C:1]([C:2]([C@@:3]1([H:13])[C:4]([H:14])([H:15])[C:5]([H:16])([H:17])[C:6]([H:18])([H:19])[O:7]1)([H:11])[H:12])([H:8])([H:9])[H:10]>>[C:1]([C:2]([C-:3]=[O+:7][C:6]([C:5]([C:4]([H:13])([H:14])[H:15])([H:16])[H:17])([H:18])[H:19])([H:11])[H:12])([H:8])([H:9])[H:10]"
C        2.60590013      -0.50938327       0.13473479
C        1.39446967       0.26702830      -0.38080768
C        0.44346050       0.50220636       0.76845325
C       -1.28136694       1.23732966      -0.31958132
C       -2.11793215       0.00739191      -0.02623699
C       -1.18235043      -1.14371524       0.33499981
O       -0.22194413      -0.58210424       1.23088855
H        3.06371845       0.00667779       0.98031638
H        2.31551161      -1.50643483       0.47071503
H        3.35563343      -0.62367279      -0.64966839
H        1.71952960       1.24287659      -0.74897207
H        0.94927995      -0.26949338      -1.22755871
H       -0.41195435       1.53589926       0.67717315
H       -1.84036223       2.16457516      -0.18107669
H       -0.88321775       1.25316440      -1.33339334
H       -2.73749070      -0.27113961      -0.88188968
H       -2.78439745       0.20231570       0.81579541
H       -1.69430582      -1.93852935       0.87763644
H       -0.69218140      -1.57499242      -0.54152793
19
Frame=6 idx=010905 GeodesicLength=0.36550182721308117 rxn_smarts="[C:1]([C:2]([C@@:3]1([H:13])[C:4]([H:14])([H:15])[C:5]([H:16])([H:17])[C:6]([H:18])([H:19])[O:7]1)([H:11])[H:12])([H:8])([H:9])[H:10]>>[C:1]([C:2]([C-:3]=[O+:7][C:6]([C:5]([C:4]([H:13])([H:14])[H:15])([H:16])[H:17])([H:18])[H:19])([H:11])[H:12])([H:8])([H:9])[H:10]"
C        2.61461074      -0.50961595       0.13873042
C        1.40757402       0.26976343      -0.38237728
C        0.44370135       0.49806544       0.75617372
C       -1.28407593       1.23394879      -0.32251967
C       -2.12621520       0.00936992      -0.01793416
C       -1.19006886      -1.14479577       0.33026816
O       -0.21501009      -0.59085307       1.21657831
H        3.06313626      -0.00008939       0.99327572
H        2.32243576      -1.51005019       0.46290510
H        3.37250203      -0.61635782      -0.63881929
H        1.73667745       1.24728456      -0.74256319
H        0.96539815      -0.26175679      -1.23358534
H       -0.42006053       1.54756156       0.68589020
H       -1.84403129       2.16290551      -0.19975723
H       -0.89934813       1.23794613      -1.34228509
H       -2.75915247      -0.26739630      -0.86416645
H       -2.77953321       0.20874881       0.83340102
H       -1.69867445      -1.93822715       0.87824694
H       -0.70986558      -1.57645170      -0.55146186
19
Frame=7 idx=010905 GeodesicLength=0.42604827145508667 rxn_smarts="[C:1]([C:2]([C@@:3]1([H:13])[C:4]([H:14])([H:15])[C:5]([H:16])([H:17])[C:6]([H:18])([H:19])[O:7]1)([H:11])[H:12])([H:8])([H:9])[H:10]>>[C:1]([C:2]([C-:3]=[O+:7][C:6]([C:5]([C:4]([H:13])([H:14])[H:15])([H:16])[H:17])([H:18])[H:19])([H:11])[H:12])([H:8])([H:9])[H:10]"
C        2.62320986      -0.50997721       0.14269363
C        1.42080319       0.27266468      -0.38395851
C        0.44396305       0.49405409       0.74354326
C       -1.28684753       1.23055410      -0.32560904
C       -2.13433748       0.01133357      -0.00964311
C       -1.19778150      -1.14582121       0.32569043
O       -0.20805613      -0.59941964       1.20192406
H        3.06221502      -0.00732197       1.00627089
H        2.32921400      -1.51373449       0.45471895
H        3.38932806      -0.60910758      -0.62772082
H        1.75409499       1.25185421      -0.73580979
H        0.98171155      -0.25353434      -1.23979572
H       -0.42843781       1.55924398       0.69451930
H       -1.84779312       2.16090867      -0.21833363
H       -0.91577637       1.22265137      -1.35108045
H       -2.78044586      -0.26370339      -0.84628332
H       -2.77441036       0.21513642       0.85075362
H       -1.70291033      -1.93774080       0.87923445
H       -0.72774322      -1.57804047      -0.56111418
19
Frame=8 idx=010905 GeodesicLength=0.48650093937548905 rxn_smarts="[C:1]([C:2]([C@@:3]1([H:13])[C:4]([H:14])([H:15])[C:5]([H:16])([H:17])[C:6]([H:18])([H:19])[O:7]1)([H:11])[H:12])([H:8])([H:9])[H:10]>>[C:1]([C:2]([C-:3]=[O+:7][C:6]([C:5]([C:4]([H:13])([H:14])[H:15])([H:16])[H:17])([H:18])[H:19])([H:11])[H:12])([H:8])([H:9])[H:10]"
C        2.63169458      -0.51047219       0.14662148
C        1.43416030       0.27573815      -0.38554363
C        0.44424892       0.49017017       0.73055515
C       -1.28968364       1.22713907      -0.32885937
C       -2.14229789       0.01328070      -0.00136411
C       -1.20548343      -1.14679330       0.32127458
O       -0.20108545      -0.60780121       1.18692081
H        3.06094522      -0.01503639       1.01929650
H        2.33584428      -1.51749109       0.44613584
H        3.40610573      -0.60193135      -0.61637059
H        1.77178452       1.25658939      -0.72868118
H        0.99823672      -0.24480107      -1.24619047
H       -0.43709169       1.57096283       0.70304553
H       -1.85165879       2.15859074      -0.23680927
H       -0.93250120       1.20727952      -1.35977956
H       -2.80136591      -0.26006883      -0.82824295
H       -2.76903320       0.22148275       0.86785106
H       -1.70700062      -1.93706721       0.88061167
H       -0.74581845      -1.57977068      -0.57047149
19
Frame=9 idx=010905 GeodesicLength=0.5468649380501401 rxn_smarts="[C:1]([C:2]([C@@:3]1([H:13])[C:4]([H:14])([H:15])[C:5]([H:16])([H:17])[C:6]([H:18])([H:19])[O:7]1)([H:11])[H:12])([H:8])([H:9])[H:10]>>[C:1]([C:2]([C-:3]=[O+:7][C:6]([C:5]([C:4]([H:13])([H:14])[H:15])([H:16])[H:17])([H:18])[H:19])([H:11])[H:12])([H:8])([H:9])[H:10]"
C        2.64006199      -0.51110789       0.15050758
C        1.44765126       0.27899106      -0.38712421
C        0.44456159       0.48641066       0.71720100
C       -1.29258500       1.22369889      -0.33228156
C       -2.15009699       0.01521083       0.00690385
C       -1.21317083      -1.14771353       0.31702668
O       -0.19409922      -0.61599571       1.17156344
H        3.05930656      -0.02326193       1.03235014
H        2.34232646      -1.52132042       0.43712833
H        3.42283711      -0.59482613      -0.60475735
H        1.78975000       1.26149511      -0.72114302
H        1.01499193      -0.23552991      -1.25277033
H       -0.44602878       1.58273536       0.71145294
H       -1.85563257       2.15595101      -0.25519734
H       -0.94951996       1.19182108      -1.36838563
H       -2.82192673      -0.25650247      -0.81003789
H       -2.76340145       0.22779764       0.88469813
H       -1.71092953      -1.93620270       0.88239187
H       -0.76409584      -1.58165096      -0.57952663
19
Frame=10 idx=010905 GeodesicLength=0.6071473766500668 rxn_smarts="[C:1]([C:2]([C@@:3]1([H:13])[C:4]([H:14])([H:15])[C:5]([H:16])([H:17])[C:6]([H:18])([H:19])[O:7]1)([H:11])[H:12])([H:8])([H:9])[H:10]>>[C:1]([C:2]([C-:3]=[O+:7][C:6]([C:5]([C:4]([H:13])([H:14])[H:15])([H:16])[H:17])([H:18])[H:19])([H:11])[H:12])([H:8])([H:9])[H:10]"
C        2.64830868      -0.51189132       0.15434725
C        1.46128079       0.28243071      -0.38869040
C        0.44490486       0.48277280       0.70347212
C       -1.29555323       1.22022667      -0.33588529
C       -2.15773377       0.01712311       0.01516232
C       -1.22083847      -1.14858365       0.31295471
O       -0.18709849      -0.62400117       1.15584766
H        3.05728357      -0.03202870       1.04541889
H        2.34866120      -1.52522056       0.42766428
H        3.43951747      -0.58779980      -0.59286775
H        1.80799161       1.26657627      -0.71315732
H        1.03199572      -0.22569109      -1.25953235
H       -0.45525604       1.59458179       0.71972618
H       -1.85972961       2.15299185      -0.27351033
H       -0.96683114       1.17627103      -1.37690180
H       -2.84212840      -0.25300992      -0.79166791
H       -2.75751610       0.23408739       0.90129284
H       -1.71467986      -1.93514318       0.88458914
H       -0.78257881      -1.58369223      -0.58826226
19
Frame=11 idx=010905 GeodesicLength=0.6673491754856752 rxn_smarts="[C:1]([C:2]([C@@:3]1([H:13])[C:4]([H:14])([H:15])[C:5]([H:16])([H:17])[C:6]([H:18])([H:19])[O:7]1)([H:11])[H:12])([H:8])([H:9])[H:10]>>[C:1]([C:2]([C-:3]=[O+:7][C:6]([C:5]([C:4]([H:13])([H:14])[H:15])([H:16])[H:17])([H:18])[H:19])([H:11])[H:12])([H:8])([H:9])[H:10]"
C        2.65643133      -0.51282819       0.15813496
C        1.47505259       0.28606351      -0.39023348
C        0.44528148       0.47925415       0.68935781
C       -1.29858925       1.21671579      -0.33968243
C       -2.16520684       0.01901608       0.02341016
C       -1.22848163      -1.14940541       0.30906614
O       -0.18008522      -0.63181646       1.13976604
H        3.05485877      -0.04136302       1.05849455
H        2.35484798      -1.52919263       0.41771648
H        3.45614501      -0.58085440      -0.58069261
H        1.82651102       1.27183476      -0.70468675
H        1.04926677      -0.21525715      -1.26647359
H       -0.46478190       1.60652142       0.72784690
H       -1.86395870       2.14971549      -0.29175820
H       -0.98443330       1.16062402      -1.38532751
H       -2.86197316      -0.24959744      -0.77312774
H       -2.75137741       0.24035993       0.91763679
H       -1.71823638      -1.93388441       0.88721602
H       -0.80127117      -1.58590602      -0.59666355
19
Frame=12 idx=010905 GeodesicLength=0.7274759549947152 rxn_smarts="[C:1]([C:2]([C@@:3]1([H:13])[C:4]([H:14])([H:15])[C:5]([H:16])([H:17])[C:6]([H:18])([H:19])[O:7]1)([H:11])[H:12])([H:8])([H:9])[H:10]>>[C:1]([C:2]([C-:3]=[O+:7][C:6]([C:5]([C:4]([H:13])([H:14])[H:15])([H:16])[H:17])([H:18])[H:19])([H:11])[H:12])([H:8])([H:9])[H:10]"
C        2.66442505      -0.51392642       0.16186320
C        1.48897113       0.28989694      -0.39174271
C        0.44569397       0.47585130       0.67484814
C       -1.30169454       1.21315952      -0.34368328
C       -2.17251581       0.02088944       0.03164979
C       -1.23609464      -1.15017993       0.30536920
O       -0.17305948      -0.63944093       1.12331319
H        3.05201026      -0.05129897       1.07156683
H        2.36089126      -1.53323344       0.40725026
H        3.47271658      -0.57399403      -0.56821889
H        1.84530606       1.27727364      -0.69568980
H        1.06682498      -0.20419702      -1.27359064
H       -0.47461719       1.61857626       0.73579822
H       -1.86832938       2.14612119      -0.30995899
H       -1.00232308       1.14487100      -1.39366452
H       -2.88146392      -0.24626948      -0.75441274
H       -2.74498471       0.24662467       0.93373068
H       -1.72157957      -1.93242160       0.89028767
H       -0.82017699      -1.58830212      -0.60471563
19
Frame=13 idx=010905 GeodesicLength=0.7875300860100363 rxn_smarts="[C:1]([C:2]([C@@:3]1([H:13])[C:4]([H:14])([H:15])[C:5]([H:16])([H:17])[C:6]([H:18])([H:19])[O:7]1)([H:11])[H:12])([H:8])([H:9])[H:10]>>[C:1]([C:2]([C-:3]=[O+:7][C:6]([C:5]([C:4]([H:13])([H:14])[H:15])([H:16])[H:17])([H:18])[H:19])([H:11])[H:12])([H:8])([H:9])[H:10]"
C        2.67228531      -0.51519404       0.16552613
C        1.50303979       0.29393705      -0.39320597
C        0.44614509       0.47256079       0.65993215
C       -1.30487008       1.20955151      -0.34789667
C       -2.17965722       0.02274306       0.03988142
C       -1.24367184      -1.15090944       0.30187141
O       -0.16602353      -0.64687423       1.10648263
H        3.04872084      -0.06186249       1.08462391
H        2.36679313      -1.53734249       0.39623636
H        3.48922635      -0.56722461      -0.55544198
H        1.86437219       1.28289350      -0.68612402
H        1.08469064      -0.19247987      -1.28087666
H       -0.48477261       1.63076905       0.74356360
H       -1.87285095       2.14220839      -0.32812714
H       -1.02049678       1.12900343      -1.40191514
H       -2.90060121      -0.24302956      -0.73551675
H       -2.73833851       0.25288928       0.94957188
H       -1.72469230      -1.93074852       0.89381665
H       -0.83929832      -1.59089080      -0.61240180
19
Frame=14 idx=010905 GeodesicLength=0.8475146646864858 rxn_smarts="[C:1]([C:2]([C@@:3]1([H:13])[C:4]([H:14])([H:15])[C:5]([H:16])([H:17])[C:6]([H:18])([H:19])[O:7]1)([H:11])[H:12])([H:8])([H:9])[H:10]>>[C:1]([C:2]([C-:3]=[O+:7][C:6]([C:5]([C:4]([H:13])([H:14])[H:15])([H:16])[H:17])([H:18])[H:19])([H:11])[H:12])([H:8])([H:9])[H:10]"
C        2.68000706      -0.51663844       0.16911574
C        1.51726291       0.29819297      -0.39461145
C        0.44663751       0.46938128       0.64459705
C       -1.30811673       1.20588432      -0.35233552
C       -2.18662938       0.02457730       0.04810845
C       -1.25120595      -1.15159411       0.29858318
O       -0.15897725      -0.65411531       1.08926684
H        3.04496178      -0.07310044       1.09765087
H        2.37255722      -1.54151504       0.38462786
H        3.50567186      -0.56054760      -0.54234164
H        1.88370792       1.28869624      -0.67594075
H        1.10288583      -0.18007057      -1.28832396
H       -0.49526111       1.64312620       0.75112069
H       -1.87753516       2.13797311      -0.34628369
H       -1.03895186       1.11300872      -1.41007974
H       -2.91938888      -0.23988393      -0.71643159
H       -2.73143556       0.25916528       0.96516077
H       -1.72755266      -1.92885831       0.89781949
H       -0.85863757      -1.59368165      -0.61970260
19
Frame=15 idx=010905 GeodesicLength=0.9074320565626728 rxn_smarts="[C:1]([C:2]([C@@:3]1([H:13])[C:4]([H:14])([H:15])[C:5]([H:16])([H:17])[C:6]([H:18])([H:19])[O:7]1)([H:11])[H:12])([H:8])([H:9])[H:10]>>[C:1]([C:2]([C-:3]=[O+:7][C:6]([C:5]([C:4]([H:13])([H:14])[H:15])([H:16])[H:17])([H:18])[H:19])([H:11])[H:12])([H:8])([H:9])[H:10]"
C        2.68758470      -0.51826818       0.17262274
C        1.53164373       0.30267178      -0.39594551
C        0.44717374       0.46630959       0.62882958
C       -1.31143529       1.20215099      -0.35701050
C       -2.19342865       0.02639269       0.05633141
C       -1.25869042      -1.15223488       0.29551438
O       -0.15192230      -0.66116402       1.07165791
H        3.04070864      -0.08504838       1.11063107
H        2.37819009      -1.54574758       0.37238688
H        3.52204690      -0.55396979      -0.52890735
H        1.90330675       1.29468119      -0.66509062
H        1.12143231      -0.16693426      -1.29592237
H       -0.50609710       1.65567448       0.75844891
H       -1.88239247       2.13341251      -0.36444628
H       -1.05768513       1.09687593      -1.41815857
H       -2.93782497      -0.23683646      -0.69715220
H       -2.72427413       0.26546314       0.98049668
H       -1.73014064      -1.92674337       0.90231092
H       -0.87819576      -1.59668539      -0.62659708
19
Frame=16 idx=010905 GeodesicLength=0.9672843859860252 rxn_smarts="[C:1]([C:2]([C@@:3]1([H:13])[C:4]([H:14])([H:15])[C:5]([H:16])([H:17])[C:6]([H:18])([H:19])[O:7]1)([H:11])[H:12])([H:8])([H:9])[H:10]>>[C:1]([C:2]([C-:3]=[O+:7][C:6]([C:5]([C:4]([H:13])([H:14])[H:15])([H:16])[H:17])([H:18])[H:19])([H:11])[H:12])([H:8])([H:9])[H:10]"
C        2.69501151      -0.52009237       0.17603708
C        1.54618549       0.30738244      -0.39719314
C        0.44775617       0.46334418       0.61261569
C       -1.31482683       1.19834332      -0.36193360
C       -2.20005138       0.02818982       0.06455361
C       -1.26611664      -1.15283212       0.29267662
O       -0.14485899      -0.66801934       1.05364957
H        3.03593040      -0.09775456       1.12354545
H        2.38369532      -1.55003626       0.35946304
H        3.53834687      -0.54749300      -0.51512267
H        1.92316207       1.30084713      -0.65351858
H        1.14035326      -0.15303191      -1.30366001
H       -0.51729702       1.66844398       0.76552425
H       -1.88743373       2.12852139      -0.38263804
H       -1.07669282       1.08059032      -1.42615296
H       -2.95590832      -0.23389088      -0.67766954
H       -2.71685075       0.27179426       0.99557609
H       -1.73243220      -1.92439447       0.90730855
H       -0.89797240      -1.59991194      -0.63306138
