12
Frame=0 idx=001702 GeodesicLength=0.0 rxn_smarts="[C:1](#[C:2][C@@:3]1([H:8])[C:4]([H:9])([H:10])[C:5]([H:11])([H:12])[O:6]1)[H:7]>>[C:1](#[C:2][H:9])[H:7].[C:3]1([H:8])=[C:4]([H:10])[C:5]([H:11])([H:12])[O:6]1"
C        2.61871300      -0.31774198       0.13728960
C        1.47451507      -0.19952072      -0.26706019
C        0.07882857       0.52082773      -0.28887538
C       -0.77578749      -0.62621729      -0.20551559
C       -1.80901827       0.34370216       0.36525885
O       -0.70840379       1.31445139       0.59648694
H        3.62218757      -0.47520193       0.46103102
H        0.14181493       1.03656536      -1.25265531
H        0.66320365      -1.02149438      -0.99602106
H       -0.48040813      -1.41044057       0.47906477
H       -2.29678546       0.03922386       1.29128208
H       -2.52885961       0.79584637      -0.32028569
12
Frame=1 idx=001702 GeodesicLength=0.094085502985 rxn_smarts="[C:1](#[C:2][C@@:3]1([H:8])[C:4]([H:9])([H:10])[C:5]([H:11])([H:12])[O:6]1)[H:7]>>[C:1](#[C:2][H:9])[H:7].[C:3]1([H:8])=[C:4]([H:10])[C:5]([H:11])([H:12])[O:6]1"
C        2.63973849      -0.31932313       0.13540303
C        1.49249045      -0.20964274      -0.25916324
C        0.07453295       0.52518278      -0.28002928
C       -0.78131461      -0.62265454      -0.20455090
C       -1.81704855       0.34711985       0.36117512
O       -0.71884968       1.31524747       0.60102017
H        3.65251033      -0.46020931       0.43688315
H        0.15229906       1.04646998      -1.23968153
H        0.65686153      -1.04163079      -0.98110466
H       -0.50627326      -1.42040078       0.47296395
H       -2.30943887       0.04462478       1.28548884
H       -2.53550782       0.79521642      -0.32840464
12
Frame=2 idx=001702 GeodesicLength=0.18816574742770648 rxn_smarts="[C:1](#[C:2][C@@:3]1([H:8])[C:4]([H:9])([H:10])[C:5]([H:11])([H:12])[O:6]1)[H:7]>>[C:1](#[C:2][H:9])[H:7].[C:3]1([H:8])=[C:4]([H:10])[C:5]([H:11])([H:12])[O:6]1"
C        2.66149001      -0.32056855       0.13262571
C        1.51100059      -0.22005091      -0.25128139
C        0.07013756       0.52971134      -0.27090599
C       -0.78664470      -0.61907242      -0.20326701
C       -1.82513617       0.35052718       0.35698682
O       -0.72953170       1.31610873       0.60569580
H        3.68247790      -0.44524769       0.41257875
H        0.16292432       1.05646323      -1.22616381
H        0.65034221      -1.06209950      -0.96547000
H       -0.53261890      -1.43024653       0.46659568
H       -2.32239191       0.05002537       1.27943463
H       -2.54204922       0.79444976      -0.33682919
12
Frame=3 idx=001702 GeodesicLength=0.2822470639326581 rxn_smarts="[C:1](#[C:2][C@@:3]1([H:8])[C:4]([H:9])([H:10])[C:5]([H:11])([H:12])[O:6]1)[H:7]>>[C:1](#[C:2][H:9])[H:7].[C:3]1([H:8])=[C:4]([H:10])[C:5]([H:11])([H:12])[O:6]1"
C        2.68392584      -0.32152956       0.12927442
C        1.53006120      -0.23080111      -0.24315086
C        0.06564432       0.53440798      -0.26135451
C       -0.79179210      -0.61547175      -0.20161837
C       -1.83335206       0.35393631       0.35259625
O       -0.74054720       1.31702926       0.61056688
H        3.71243225      -0.43022111       0.38734380
H        0.17381431       1.06654670      -1.21191976
H        0.64368836      -1.08292065      -0.94889708
H       -0.55958329      -1.43998754       0.45995891
H       -2.33584142       0.05543964       1.27294869
H       -2.54845020       0.79357183      -0.34574838
12
Frame=4 idx=001702 GeodesicLength=0.37632370809876164 rxn_smarts="[C:1](#[C:2][C@@:3]1([H:8])[C:4]([H:9])([H:10])[C:5]([H:11])([H:12])[O:6]1)[H:7]>>[C:1](#[C:2][H:9])[H:7].[C:3]1([H:8])=[C:4]([H:10])[C:5]([H:11])([H:12])[O:6]1"
C        2.70710617      -0.32215306       0.12480919
C        1.54970738      -0.24187561      -0.23510155
C        0.06104081       0.53929183      -0.25148809
C       -0.79672890      -0.61185686      -0.19958578
C       -1.84162465       0.35733665       0.34809833
O       -0.75182647       1.31802664       0.61558948
H        3.74207818      -0.41520043       0.36210370
H        0.18483390       1.07672168      -1.19706859
H        0.63681892      -1.10409096      -0.93151812
H       -0.58707932      -1.44960893       0.45298076
H       -2.34961011       0.06086864       1.26618067
H       -2.55471591       0.79254038      -0.35500001
12
Frame=5 idx=001702 GeodesicLength=0.47040224279798304 rxn_smarts="[C:1](#[C:2][C@@:3]1([H:8])[C:4]([H:9])([H:10])[C:5]([H:11])([H:12])[O:6]1)[H:7]>>[C:1](#[C:2][H:9])[H:7].[C:3]1([H:8])=[C:4]([H:10])[C:5]([H:11])([H:12])[O:6]1"
C        2.73097596      -0.32242460       0.11977689
C        1.56996659      -0.25329145      -0.22669455
C        0.05632503       0.54437615      -0.24107806
C       -0.80145356      -0.60822519      -0.19709248
C       -1.85006111       0.36072955       0.34333723
O       -0.76354359       1.31910515       0.62082678
H        3.77184828      -0.40022649       0.33558932
H        0.19615602       1.08700316      -1.18133921
H        0.62984068      -1.12560416      -0.91298600
H       -0.61526037      -1.45910637       0.44568227
H       -2.36399198       0.06631426       1.25886335
H       -2.56080196       0.79134999      -0.36488554
12
Frame=6 idx=001702 GeodesicLength=0.5644779228260035 rxn_smarts="[C:1](#[C:2][C@@:3]1([H:8])[C:4]([H:9])([H:10])[C:5]([H:11])([H:12])[O:6]1)[H:7]>>[C:1](#[C:2][H:9])[H:7].[C:3]1([H:8])=[C:4]([H:10])[C:5]([H:11])([H:12])[O:6]1"
C        2.75556614      -0.32236618       0.11367927
C        1.59087489      -0.26506576      -0.21826057
C        0.05148948       0.54966824      -0.23022441
C       -0.80594803      -0.60458314      -0.19411382
C       -1.85859043       0.36411380       0.33840461
O       -0.77562164       1.32027912       0.62624154
H        3.80149597      -0.38525100       0.30867158
H        0.20766444       1.09738307      -1.16483423
H        0.62266041      -1.14747212      -0.89341961
H       -0.64406928      -1.46847379       0.43796802
H       -2.37881993       0.07179051       1.25113748
H       -2.56670203       0.78997724      -0.37524988
12
Frame=7 idx=001702 GeodesicLength=0.6585527526187016 rxn_smarts="[C:1](#[C:2][C@@:3]1([H:8])[C:4]([H:9])([H:10])[C:5]([H:11])([H:12])[O:6]1)[H:7]>>[C:1](#[C:2][H:9])[H:7].[C:3]1([H:8])=[C:4]([H:10])[C:5]([H:11])([H:12])[O:6]1"
C        2.78085314      -0.32194885       0.10667476
C        1.61247180      -0.27719387      -0.20964759
C        0.04652612       0.55519002      -0.21881544
C       -0.81019428      -0.60093029      -0.19057729
C       -1.86725118       0.36748295       0.33323497
O       -0.78815422       1.32156407       0.63185285
H        3.83117097      -0.37034608       0.28086512
H        0.21941543       1.10787460      -1.14741460
H        0.61532094      -1.16968036      -0.87262858
H       -0.67356326      -1.47769870       0.42980441
H       -2.39421385       0.07729761       1.24288244
H       -2.57238160       0.78838891      -0.38623105
12
Frame=8 idx=001702 GeodesicLength=0.752624470477921 rxn_smarts="[C:1](#[C:2][C@@:3]1([H:8])[C:4]([H:9])([H:10])[C:5]([H:11])([H:12])[O:6]1)[H:7]>>[C:1](#[C:2][H:9])[H:7].[C:3]1([H:8])=[C:4]([H:10])[C:5]([H:11])([H:12])[O:6]1"
C        2.80683633      -0.32114252       0.09847992
C        1.63480285      -0.28965573      -0.20106301
C        0.04142059       0.56096767      -0.20688500
C       -0.81416699      -0.59727080      -0.18642341
C       -1.87601168       0.37082701       0.32787116
O       -0.80113559       1.32298809       0.63763159
H        3.86077718      -0.35558968       0.25261679
H        0.23133173       1.11848462      -1.12911624
H        0.60778363      -1.19221775      -0.85061657
H       -0.70370470      -1.48676360       0.42111850
H       -2.41010178       0.08284149       1.23415957
H       -2.57783156       0.78653120      -0.39777331
12
Frame=9 idx=001702 GeodesicLength=0.8466880164505826 rxn_smarts="[C:1](#[C:2][C@@:3]1([H:8])[C:4]([H:9])([H:10])[C:5]([H:11])([H:12])[O:6]1)[H:7]>>[C:1](#[C:2][H:9])[H:7].[C:3]1([H:8])=[C:4]([H:10])[C:5]([H:11])([H:12])[O:6]1"
C        2.83347453      -0.32004860       0.08938439
C        1.65790647      -0.30252831      -0.19224029
C        0.03618101       0.56699087      -0.19424254
C       -0.81786015      -0.59360750      -0.18156049
C       -1.88491846       0.37415737       0.32220843
O       -0.81466480       1.32454180       0.64363387
H        3.89050432      -0.34081360       0.22311310
H        0.24354422       1.12920390      -1.10969183
H        0.60008613      -1.21509331      -0.82712183
H       -0.73461653      -1.49566536       0.41183674
H       -2.42667019       0.08844193       1.22476330
H       -2.58296655       0.78442082      -0.41008284
12
Frame=10 idx=001702 GeodesicLength=0.9407455936602379 rxn_smarts="[C:1](#[C:2][C@@:3]1([H:8])[C:4]([H:9])([H:10])[C:5]([H:11])([H:12])[O:6]1)[H:7]>>[C:1](#[C:2][H:9])[H:7].[C:3]1([H:8])=[C:4]([H:10])[C:5]([H:11])([H:12])[O:6]1"
C        2.86074252      -0.31875955       0.07915403
C        1.68182810      -0.31586042      -0.18339562
C        0.03080747       0.57326400      -0.18089872
C       -0.82126115      -0.58995093      -0.17591279
C       -1.89393047       0.37747988       0.31628766
O       -0.82871273       1.32624807       0.64984445
H        3.92025092      -0.32587427       0.19273024
H        0.25601347       1.14002047      -1.08914593
H        0.59216403      -1.23833028      -0.80212479
H       -0.76630331      -1.50440043       0.40183315
H       -2.44385699       0.09412745       1.21474191
H       -2.58774187       0.78203600      -0.42311360
12
Frame=11 idx=001702 GeodesicLength=1.034797720599081 rxn_smarts="[C:1](#[C:2][C@@:3]1([H:8])[C:4]([H:9])([H:10])[C:5]([H:11])([H:12])[O:6]1)[H:7]>>[C:1](#[C:2][H:9])[H:7].[C:3]1([H:8])=[C:4]([H:10])[C:5]([H:11])([H:12])[O:6]1"
C        2.88863508      -0.31710781       0.06772641
C        1.70663332      -0.32955075      -0.17454977
C        0.02526642       0.57984960      -0.16677785
C       -0.82432086      -0.58629770      -0.16934870
C       -1.90306350       0.38076301       0.31007958
O       -0.84339095       1.32815358       0.65624300
H        3.95004161      -0.31113418       0.16135466
H        0.26869322       1.15097116      -1.06739082
H        0.58406813      -1.26186303      -0.77544073
H       -0.79871894      -1.51292442       0.39103206
H       -2.46171445       0.09988084       1.20402606
H       -2.59212908       0.77925970      -0.43695389
12
Frame=12 idx=001702 GeodesicLength=1.1288440311025256 rxn_smarts="[C:1](#[C:2][C@@:3]1([H:8])[C:4]([H:9])([H:10])[C:5]([H:11])([H:12])[O:6]1)[H:7]>>[C:1](#[C:2][H:9])[H:7].[C:3]1([H:8])=[C:4]([H:10])[C:5]([H:11])([H:12])[O:6]1"
C        2.91710629      -0.31527953       0.05498203
C        1.73236724      -0.34371674      -0.16585666
C        0.01956976       0.58672618      -0.15181444
C       -0.82703686      -0.58266382      -0.16175114
C       -1.91228741       0.38402797       0.30359059
O       -0.85868383       1.33026802       0.66284333
H        3.97983788      -0.29626631       0.12907950
H        0.28160314       1.16202019      -1.04433878
H        0.57573251      -1.28573823      -0.74695940
H       -0.83192303      -1.52123472       0.37926382
H       -2.48024792       0.10575526       1.19258808
H       -2.59603778       0.77610173      -0.45162692
12
Frame=13 idx=001702 GeodesicLength=1.2228780984527081 rxn_smarts="[C:1](#[C:2][C@@:3]1([H:8])[C:4]([H:9])([H:10])[C:5]([H:11])([H:12])[O:6]1)[H:7]>>[C:1](#[C:2][H:9])[H:7].[C:3]1([H:8])=[C:4]([H:10])[C:5]([H:11])([H:12])[O:6]1"
C        2.94615010      -0.31305501       0.04095166
C        1.75910191      -0.35822985      -0.15720624
C        0.01367690       0.59397099      -0.13584408
C       -0.82935398      -0.57904155      -0.15292464
C       -1.92164013       0.38723223       0.29674518
O       -0.87476673       1.33264204       0.66963994
H        4.00971030      -0.28173980       0.09543885
H        0.29473555       1.17322060      -1.01979394
H        0.56725285      -1.30986065      -0.71635498
H       -0.86587606      -1.52927356       0.36640145
H       -2.49959636       0.11172056       1.18026057
H       -2.59939435       0.77241400      -0.46731377
12
Frame=14 idx=001702 GeodesicLength=1.3169057385539895 rxn_smarts="[C:1](#[C:2][C@@:3]1([H:8])[C:4]([H:9])([H:10])[C:5]([H:11])([H:12])[O:6]1)[H:7]>>[C:1](#[C:2][H:9])[H:7].[C:3]1([H:8])=[C:4]([H:10])[C:5]([H:11])([H:12])[O:6]1"
C        2.97568580      -0.31075812       0.02547012
C        1.78687814      -0.37328339      -0.14896631
C        0.00760667       0.60153886      -0.11883683
C       -0.83128241      -0.57545824      -0.14271051
C       -1.93105339       0.39041470       0.28959583
O       -0.89156532       1.33529860       0.67662349
H        4.03954747      -0.26698960       0.06080342
H        0.30808457       1.18449493      -0.99372231
H        0.55850459      -1.33431503      -0.68354908
H       -0.90063088      -1.53703347       0.35217464
H       -2.51968811       0.11787392       1.16708410
H       -2.60208714       0.76821684      -0.48396656
12
Frame=15 idx=001702 GeodesicLength=1.4109126080966503 rxn_smarts="[C:1](#[C:2][C@@:3]1([H:8])[C:4]([H:9])([H:10])[C:5]([H:11])([H:12])[O:6]1)[H:7]>>[C:1](#[C:2][H:9])[H:7].[C:3]1([H:8])=[C:4]([H:10])[C:5]([H:11])([H:12])[O:6]1"
C        3.00568057      -0.30829234       0.00847072
C        1.81575677      -0.38882618      -0.14123489
C        0.00132633       0.60947934      -0.10064356
C       -0.83278503      -0.57191459      -0.13085094
C       -1.94053044       0.39354761       0.28210986
O       -0.90919984       1.33829198       0.68377308
H        4.06936100      -0.25225676       0.02498629
H        0.32162594       1.19585082      -0.96595537
H        0.54952326      -1.35903290      -0.64822027
H       -0.93614678      -1.54444113       0.33632627
H       -2.54060483       0.12422658       1.15294073
H       -2.60400694       0.76336757      -0.50170191
12
Frame=16 idx=001702 GeodesicLength=1.5049021409129244 rxn_smarts="[C:1](#[C:2][C@@:3]1([H:8])[C:4]([H:9])([H:10])[C:5]([H:11])([H:12])[O:6]1)[H:7]>>[C:1](#[C:2][H:9])[H:7].[C:3]1([H:8])=[C:4]([H:10])[C:5]([H:11])([H:12])[O:6]1"
C        3.03607376      -0.30539950      -0.01047226
C        1.84579977      -0.40469410      -0.13464997
C       -0.00523878       0.61789227      -0.08129327
C       -0.83381432      -0.56841138      -0.11705102
C       -1.95003704       0.39657991       0.27438683
O       -0.92774484       1.34173803       0.69098556
H        4.09913414      -0.23812361      -0.01118138
H        0.33512687       1.20732368      -0.93659409
H        0.54031421      -1.38390713      -0.61021316
H       -0.97223544      -1.55140458       0.31855543
H       -2.56224129       0.13078334       1.13795378
H       -2.60513705       0.75762306      -0.52042645
