16
Frame=0 idx=006470 GeodesicLength=0.0 rxn_smarts="[C:1]([C@@:2]([C:3]([O:4][H:14])([H:12])[H:13])([N:5]([C:6](=[O:7])[H:16])[H:15])[H:11])([H:8])([H:9])[H:10]>>[C:1]([C@@:2]([C:3]([O:4][H:14])([H:12])[H:13])([N:5]([C:6][O:7][H:16])[H:15])[H:11])([H:8])([H:9])[H:10]"
C       -1.22201677       1.42718633      -0.25948454
C       -0.28695985       0.31815716       0.19692661
C       -0.92078770      -1.06183954       0.01440906
O       -0.35391818      -2.06628630       0.81204312
N        0.97857699       0.45415198      -0.54894866
C        2.14372416      -0.03925154      -0.18851111
O        2.21669455      -0.80563508       0.88406534
H       -0.74859098       2.40532901      -0.16164263
H       -2.13056393       1.42956809       0.34167325
H       -1.51384324       1.28728862      -1.30458397
H       -0.05194638       0.44313902       1.25748492
H       -1.97552215      -0.99807730       0.29620763
H       -0.88134366      -1.32428671      -1.05365433
H        0.59476122      -1.90491742       0.89894904
H        0.96851277       1.01333467      -1.38543651
H        3.18322318      -0.57786095       0.20050281
16
Frame=1 idx=006470 GeodesicLength=0.03042416621921313 rxn_smarts="[C:1]([C@@:2]([C:3]([O:4][H:14])([H:12])[H:13])([N:5]([C:6](=[O:7])[H:16])[H:15])[H:11])([H:8])([H:9])[H:10]>>[C:1]([C@@:2]([C:3]([O:4][H:14])([H:12])[H:13])([N:5]([C:6][O:7][H:16])[H:15])[H:11])([H:8])([H:9])[H:10]"
C       -1.22075356       1.42746388      -0.25906043
C       -0.28690892       0.31701527       0.19654265
C       -0.92427523      -1.06170789       0.01565531
O       -0.35866533      -2.06695942       0.81313419
N        0.97774735       0.45062898      -0.55052084
C        2.14027042      -0.06069594      -0.20492466
O        2.21554434      -0.81223608       0.87482713
H       -0.74589574       2.40499642      -0.16178804
H       -2.12878639       1.43151780       0.34291333
H       -1.51382777       1.28784187      -1.30384876
H       -0.05050184       0.44201869       1.25679348
H       -1.97855712      -0.99568900       0.29852704
H       -0.88617096      -1.32469140      -1.05233691
H        0.59119399      -1.91015998       0.89498162
H        0.96901800       1.01490595      -1.38359914
H        3.20056876      -0.54424915       0.22270403
16
Frame=2 idx=006470 GeodesicLength=0.060686150524898806 rxn_smarts="[C:1]([C@@:2]([C:3]([O:4][H:14])([H:12])[H:13])([N:5]([C:6](=[O:7])[H:16])[H:15])[H:11])([H:8])([H:9])[H:10]>>[C:1]([C@@:2]([C:3]([O:4][H:14])([H:12])[H:13])([N:5]([C:6][O:7][H:16])[H:15])[H:11])([H:8])([H:9])[H:10]"
C       -1.21908435       1.42767422      -0.25860573
C       -0.28661609       0.31572446       0.19618053
C       -0.92767546      -1.06162392       0.01692698
O       -0.36341037      -2.06770428       0.81421932
N        0.97717317       0.44675080      -0.55206685
C        2.13673821      -0.08232409      -0.22121510
O        2.21463901      -0.81945231       0.86512879
H       -0.74265539       2.40451275      -0.16190302
H       -2.12657047       1.43353226       0.34420307
H       -1.51343995       1.28833427      -1.30308540
H       -0.04874529       0.44071738       1.25612400
H       -1.98146460      -0.99321945       0.30091461
H       -0.89099787      -1.32516042      -1.05100316
H        0.58758187      -1.91556355       0.89103993
H        0.96989494       1.01606938      -1.38170010
H        3.21463265      -0.50826751       0.24484215
16
Frame=3 idx=006470 GeodesicLength=0.0907367449902044 rxn_smarts="[C:1]([C@@:2]([C:3]([O:4][H:14])([H:12])[H:13])([N:5]([C:6](=[O:7])[H:16])[H:15])[H:11])([H:8])([H:9])[H:10]>>[C:1]([C@@:2]([C:3]([O:4][H:14])([H:12])[H:13])([N:5]([C:6][O:7][H:16])[H:15])[H:11])([H:8])([H:9])[H:10]"
C       -1.21738738       1.42781940      -0.25828998
C       -0.28622968       0.31456715       0.19599283
C       -0.93057175      -1.06156543       0.01821180
O       -0.36767350      -2.06834993       0.81548217
N        0.97687090       0.44324658      -0.55304223
C        2.13329187      -0.10269219      -0.23625816
O        2.21401483      -0.82624364       0.85587105
H       -0.73962723       2.40406978      -0.16205080
H       -2.12449109       1.43528812       0.34505550
H       -1.51264592       1.28868699      -1.30251579
H       -0.04724166       0.43958087       1.25566244
H       -1.98394100      -0.99101791       0.30298364
H       -0.89494407      -1.32565160      -1.04960420
H        0.58430597      -1.92059187       0.88764779
H        0.97120631       1.01750742      -1.37924002
H        3.22506341      -0.47465374       0.26409395
16
Frame=4 idx=006470 GeodesicLength=0.12071542893418798 rxn_smarts="[C:1]([C@@:2]([C:3]([O:4][H:14])([H:12])[H:13])([N:5]([C:6](=[O:7])[H:16])[H:15])[H:11])([H:8])([H:9])[H:10]>>[C:1]([C@@:2]([C:3]([O:4][H:14])([H:12])[H:13])([N:5]([C:6][O:7][H:16])[H:15])[H:11])([H:8])([H:9])[H:10]"
C       -1.21576923       1.42790374      -0.25810915
C       -0.28580761       0.31355244       0.19597176
C       -0.93307241      -1.06149952       0.01948982
O       -0.37149547      -2.06886299       0.81688472
N        0.97681414       0.44008534      -0.55352192
C        2.13004684      -0.12169947      -0.25002774
O        2.21367154      -0.83251806       0.84716063
H       -0.73687789       2.40365267      -0.16224086
H       -2.12266293       1.43681990       0.34554470
H       -1.51161976       1.28888973      -1.30217631
H       -0.04603168       0.43863044       1.25545700
H       -1.98612109      -0.98903486       0.30479688
H       -0.89819825      -1.32612764      -1.04822095
H        0.58139131      -1.92526379       0.88464853
H        0.97289909       1.01917073      -1.37633136
H        3.23283340      -0.44369865       0.28067425
16
Frame=5 idx=006470 GeodesicLength=0.15066201736654816 rxn_smarts="[C:1]([C@@:2]([C:3]([O:4][H:14])([H:12])[H:13])([N:5]([C:6](=[O:7])[H:16])[H:15])[H:11])([H:8])([H:9])[H:10]>>[C:1]([C@@:2]([C:3]([O:4][H:14])([H:12])[H:13])([N:5]([C:6][O:7][H:16])[H:15])[H:11])([H:8])([H:9])[H:10]"
C       -1.21421537       1.42793928      -0.25804313
C       -0.28537088       0.31266132       0.19608596
C       -0.93525304      -1.06143189       0.02076902
O       -0.37495404      -2.06926566       0.81839413
N        0.97692841       0.43721156      -0.55359194
C        2.12692951      -0.13949204      -0.26269656
O        2.21350709      -0.83832922       0.83890828
H       -0.73436028       2.40326381      -0.16247776
H       -2.12103135       1.43816828       0.34572370
H       -1.51039374       1.28896142      -1.30201746
H       -0.04509253       0.43784819       1.25544910
H       -1.98804592      -0.98724321       0.30641985
H       -0.90090016      -1.32659780      -1.04683190
H        0.57876749      -1.92964983       0.88191085
H        0.97488053       1.02101369      -1.37304343
H        3.23860428      -0.41505791       0.29504131
16
Frame=6 idx=006470 GeodesicLength=0.1805835343883498 rxn_smarts="[C:1]([C@@:2]([C:3]([O:4][H:14])([H:12])[H:13])([N:5]([C:6](=[O:7])[H:16])[H:15])[H:11])([H:8])([H:9])[H:10]>>[C:1]([C@@:2]([C:3]([O:4][H:14])([H:12])[H:13])([N:5]([C:6][O:7][H:16])[H:15])[H:11])([H:8])([H:9])[H:10]"
C       -1.21272132       1.42793661      -0.25807549
C       -0.28493208       0.31187212       0.19631027
C       -0.93718118      -1.06135952       0.02205275
O       -0.37811031      -2.06957908       0.81997885
N        0.97716646       0.43456365      -0.55333098
C        2.12391363      -0.15621908      -0.27442157
O        2.21347212      -0.84375711       0.83103376
H       -0.73203594       2.40289651      -0.16276819
H       -2.11956427       1.43937396       0.34564383
H       -1.50901457       1.28892390      -1.30200671
H       -0.04438965       0.43720530       1.25560072
H       -1.98976282      -0.98560292       0.30791182
H       -0.90318044      -1.32705398      -1.04543332
H        0.57638401      -1.93381411       0.87934250
H        0.97708381       1.02298752      -1.36944565
H        3.24287254      -0.38837378       0.30760741
16
Frame=7 idx=006470 GeodesicLength=0.21045690941007184 rxn_smarts="[C:1]([C@@:2]([C:3]([O:4][H:14])([H:12])[H:13])([N:5]([C:6](=[O:7])[H:16])[H:15])[H:11])([H:8])([H:9])[H:10]>>[C:1]([C@@:2]([C:3]([O:4][H:14])([H:12])[H:13])([N:5]([C:6][O:7][H:16])[H:15])[H:11])([H:8])([H:9])[H:10]"
C       -1.21139376       1.42789527      -0.25822012
C       -0.28454822       0.31124065       0.19667007
C       -0.93882445      -1.06126655       0.02331549
O       -0.38093263      -2.06975520       0.82165374
N        0.97750831       0.43230541      -0.55263389
C        2.12096088      -0.17185232      -0.28518414
O        2.21352833      -0.84857542       0.82370555
H       -0.73008659       2.40258480      -0.16308912
H       -2.11840247       1.44037109       0.34524356
H       -1.50752203       1.28876650      -1.30217610
H       -0.04404322       0.43676914       1.25595049
H       -1.99127003      -0.98416532       0.30915729
H       -0.90490310      -1.32747614      -1.04404971
H        0.57425762      -1.93762346       0.87709044
H        0.97947518       1.02521893      -1.36546148
H        3.24619619      -0.36443740       0.31802793
16
Frame=8 idx=006470 GeodesicLength=0.24029499260887055 rxn_smarts="[C:1]([C@@:2]([C:3]([O:4][H:14])([H:12])[H:13])([N:5]([C:6](=[O:7])[H:16])[H:15])[H:11])([H:8])([H:9])[H:10]>>[C:1]([C@@:2]([C:3]([O:4][H:14])([H:12])[H:13])([N:5]([C:6][O:7][H:16])[H:15])[H:11])([H:8])([H:9])[H:10]"
C       -1.21018352       1.42782779      -0.25844931
C       -0.28420783       0.31072051       0.19713046
C       -0.94026914      -1.06115982       0.02456471
O       -0.38350799      -2.06983873       0.82338040
N        0.97792522       0.43031326      -0.55161731
C        2.11805139      -0.18660909      -0.29518420
O        2.21365058      -0.85296282       0.81676617
H       -0.72839562       2.40231093      -0.16343941
H       -2.11745707       1.44122747       0.34461052
H       -1.50594274       1.28852323      -1.30248003
H       -0.04396716       0.43648030       1.25644914
H       -1.99262883      -0.98287276       0.31024377
H       -0.90625188      -1.32787002      -1.04267767
H        0.57231991      -1.94118863       0.87503363
H        0.98200408       1.02758826      -1.36120728
H        3.24886059      -0.34248987       0.32687641
16
Frame=9 idx=006470 GeodesicLength=0.27010933286570304 rxn_smarts="[C:1]([C@@:2]([C:3]([O:4][H:14])([H:12])[H:13])([N:5]([C:6](=[O:7])[H:16])[H:15])[H:11])([H:8])([H:9])[H:10]>>[C:1]([C@@:2]([C:3]([O:4][H:14])([H:12])[H:13])([N:5]([C:6][O:7][H:16])[H:15])[H:11])([H:8])([H:9])[H:10]"
C       -1.20906513       1.42773999      -0.25874747
C       -0.28390610       0.31028725       0.19767302
C       -0.94156310      -1.06104301       0.02580441
O       -0.38589118      -2.06985018       0.82514617
N        0.97839945       0.42852602      -0.55034348
C        2.11516256      -0.20064078      -0.30455963
O        2.21382148      -0.85701816       0.81012331
H       -0.72690273       2.40206530      -0.16381629
H       -2.11668287       1.44197764       0.34378976
H       -1.50429240       1.28821022      -1.30289226
H       -0.04411322       0.43630739       1.25706880
H       -1.99387518      -0.98169393       0.31121091
H       -0.90731469      -1.32824164      -1.04131389
H        0.57052729      -1.94456845       0.87311596
H        0.98464339       1.03005095      -1.35673521
H        3.25105244      -0.32210861       0.33447591
16
Frame=10 idx=006470 GeodesicLength=0.29990405922644137 rxn_smarts="[C:1]([C@@:2]([C:3]([O:4][H:14])([H:12])[H:13])([N:5]([C:6](=[O:7])[H:16])[H:15])[H:11])([H:8])([H:9])[H:10]>>[C:1]([C@@:2]([C:3]([O:4][H:14])([H:12])[H:13])([N:5]([C:6][O:7][H:16])[H:15])[H:11])([H:8])([H:9])[H:10]"
C       -1.20801376       1.42763647      -0.25910158
C       -0.28363545       0.30991985       0.19828219
C       -0.94274247      -1.06091909       0.02703856
O       -0.38812196      -2.06980900       0.82693669
N        0.97891811       0.42689023      -0.54886573
C        2.11228239      -0.21406419      -0.31342005
O        2.21403036      -0.86082881       0.80369659
H       -0.72555611       2.40183986      -0.16421584
H       -2.11603840       1.44265046       0.34281762
H       -1.50258029       1.28784177      -1.30339073
H       -0.04443781       0.43622224       1.25778585
H       -1.99503393      -0.98060239       0.31209523
H       -0.90816743      -1.32859347      -1.03995521
H        0.56884675      -1.94780960       0.87129329
H        0.98737010       1.03256231      -1.35209391
H        3.25287990      -0.30293664       0.34109703
16
Frame=11 idx=006470 GeodesicLength=0.3296881554003625 rxn_smarts="[C:1]([C@@:2]([C:3]([O:4][H:14])([H:12])[H:13])([N:5]([C:6](=[O:7])[H:16])[H:15])[H:11])([H:8])([H:9])[H:10]>>[C:1]([C@@:2]([C:3]([O:4][H:14])([H:12])[H:13])([N:5]([C:6][O:7][H:16])[H:15])[H:11])([H:8])([H:9])[H:10]"
C       -1.20700597       1.42752126      -0.25950143
C       -0.28338739       0.30959968       0.19894375
C       -0.94383895      -1.06079077       0.02827376
O       -0.39023053      -2.06973117       0.82874117
N        0.97947085       0.42535413      -0.54723519
C        2.10940880      -0.22696514      -0.32184795
O        2.21427080      -0.86446635       0.79742263
H       -0.72430521       2.40162676      -0.16464032
H       -2.11548351       1.44327330       0.34172923
H       -1.50081386       1.28742829      -1.30395737
H       -0.04490035       0.43620162       1.25857926
H       -1.99612604      -0.97957359       0.31293719
H       -0.90888307      -1.32892917      -1.03859633
H        0.56725696      -1.95096346       0.86950321
H        0.99016584       1.03507943      -1.34732957
H        3.25440162      -0.28466481       0.34697797
16
Frame=12 idx=006470 GeodesicLength=0.35947703753544297 rxn_smarts="[C:1]([C@@:2]([C:3]([O:4][H:14])([H:12])[H:13])([N:5]([C:6](=[O:7])[H:16])[H:15])[H:11])([H:8])([H:9])[H:10]>>[C:1]([C@@:2]([C:3]([O:4][H:14])([H:12])[H:13])([N:5]([C:6][O:7][H:16])[H:15])[H:11])([H:8])([H:9])[H:10]"
C       -1.20602850       1.42740613      -0.25993839
C       -0.28315608       0.30931355       0.19964483
C       -0.94487954      -1.06066913       0.02951538
O       -0.39224791      -2.06964370       0.83055702
N        0.98005850       0.42387979      -0.54549689
C        2.10655511      -0.23941637      -0.32991928
O        2.21454894      -0.86799979       0.79124135
H       -0.72311367       2.40143594      -0.16509592
H       -2.11499746       1.44387591       0.34055802
H       -1.49900510       1.28698420      -1.30457696
H       -0.04547151       0.43623073       1.25943132
H       -1.99717857      -0.97859714       0.31376512
H       -0.90950828      -1.32926671      -1.03723303
H        0.56573598      -1.95407513       0.86771990
H        0.99303222       1.03758619      -1.34247668
H        3.25565588      -0.26704446       0.35230421
16
Frame=13 idx=006470 GeodesicLength=0.38926114702567877 rxn_smarts="[C:1]([C@@:2]([C:3]([O:4][H:14])([H:12])[H:13])([N:5]([C:6](=[O:7])[H:16])[H:15])[H:11])([H:8])([H:9])[H:10]>>[C:1]([C@@:2]([C:3]([O:4][H:14])([H:12])[H:13])([N:5]([C:6][O:7][H:16])[H:15])[H:11])([H:8])([H:9])[H:10]"
C       -1.20507430       1.42727184      -0.26041180
C       -0.28293881       0.30905920       0.20038577
C       -0.94585818      -1.06053559       0.03076124
O       -0.39417371      -2.06951294       0.83238660
N        0.98066292       0.42246872      -0.54364282
C        2.10367600      -0.25147998      -0.33767921
O        2.21483998      -0.87142188       0.78514608
H       -0.72198587       2.40123629      -0.16557059
H       -2.11456399       1.44442959       0.33929019
H       -1.49714659       1.28649656      -1.30524867
H       -0.04613593       0.43630516       1.26033817
H       -1.99817309      -0.97765681       0.31456517
H       -0.91003618      -1.32958439      -1.03586335
H        0.56427490      -1.95711941       0.86594922
H        0.99595165       1.04010370      -1.33750344
H        3.25668119      -0.25006005       0.35709743
16
Frame=14 idx=006470 GeodesicLength=0.4190049435194181 rxn_smarts="[C:1]([C@@:2]([C:3]([O:4][H:14])([H:12])[H:13])([N:5]([C:6](=[O:7])[H:16])[H:15])[H:11])([H:8])([H:9])[H:10]>>[C:1]([C@@:2]([C:3]([O:4][H:14])([H:12])[H:13])([N:5]([C:6][O:7][H:16])[H:15])[H:11])([H:8])([H:9])[H:10]"
C       -1.20416500       1.42711825      -0.26091999
C       -0.28274637       0.30884850       0.20117417
C       -0.94676535      -1.06038593       0.03200094
O       -0.39600559      -2.06933187       0.83422748
N        0.98128100       0.42115722      -0.54164730
C        2.10075998      -0.26315935      -0.34513424
O        2.21513728      -0.87470198       0.77915653
H       -0.72095764       2.40103421      -0.16606379
H       -2.11420824       1.44492638       0.33792169
H       -1.49525269       1.28596193      -1.30597240
H       -0.04691792       0.43643471       1.26131041
H       -1.99910745      -0.97676142       0.31530105
H       -0.91042463      -1.32987539      -1.03449762
H        0.56287052      -1.96006233       0.86424127
H        0.99890465       1.04264498      -1.33240358
H        3.25759744      -0.23384790       0.36130539
16
Frame=15 idx=006470 GeodesicLength=0.4487521843084152 rxn_smarts="[C:1]([C@@:2]([C:3]([O:4][H:14])([H:12])[H:13])([N:5]([C:6](=[O:7])[H:16])[H:15])[H:11])([H:8])([H:9])[H:10]>>[C:1]([C@@:2]([C:3]([O:4][H:14])([H:12])[H:13])([N:5]([C:6][O:7][H:16])[H:15])[H:11])([H:8])([H:9])[H:10]"
C       -1.20331354       1.42696405      -0.26146456
C       -0.28258556       0.30868412       0.20200852
C       -0.94761838      -1.06023726       0.03323946
O       -0.39776520      -2.06913041       0.83609028
N        0.98192842       0.41995061      -0.53951607
C        2.09781912      -0.27451164      -0.35233085
O        2.21545508      -0.87785474       0.77326206
H       -0.72003880       2.40086359      -0.16657452
H       -2.11396148       1.44538231       0.33645212
H       -1.49332682       1.28539762      -1.30675273
H       -0.04782923       0.43662593       1.26234804
H       -2.00001370      -0.97592467       0.31598252
H       -0.91067820      -1.33016518      -1.03313269
H        0.56151357      -1.96293338       0.86260879
H        1.00192113       1.04524040      -1.32717323
H        3.25849360      -0.21835135       0.36495287
16
Frame=16 idx=006470 GeodesicLength=0.47849244016288794 rxn_smarts="[C:1]([C@@:2]([C:3]([O:4][H:14])([H:12])[H:13])([N:5]([C:6](=[O:7])[H:16])[H:15])[H:11])([H:8])([H:9])[H:10]>>[C:1]([C@@:2]([C:3]([O:4][H:14])([H:12])[H:13])([N:5]([C:6][O:7][H:16])[H:15])[H:11])([H:8])([H:9])[H:10]"
C       -1.20249904       1.42680039      -0.26204022
C       -0.28244695       0.30855276       0.20288028
C       -0.94842573      -1.06008401       0.03447798
O       -0.39946263      -2.06890162       0.83796985
N        0.98259325       0.41881663      -0.53727491
C        2.09483966      -0.28557668      -0.35930969
O        2.21578412      -0.88092080       0.76742144
H       -0.71919756       2.40070261      -0.16710554
H       -2.11378347       1.44580143       0.33490105
H       -1.49136892       1.28479963      -1.30757861
H       -0.04883790       0.43686179       1.26343720
H       -2.00088809      -0.97512751       0.31662270
H       -0.91082996      -1.33044705      -1.03176613
H        0.56019182      -1.96574161       0.86102831
H        1.00498824       1.04787246      -1.32182202
H        3.25934315      -0.20340843       0.36815831
