12
Frame=0 idx=010541 GeodesicLength=0.0 rxn_smarts="[O:1]=[C:2]([C@@:3]1([H:9])[C:4]([H:10])([H:11])[N:5]=[C:6]([H:12])[O:7]1)[H:8]>>[O:1]=[C:2]([C@@:3]1([H:9])[C:4]([H:10])([H:11])[N:5]1[C:6](=[O:7])[H:12])[H:8]"
O       -2.03088258      -0.09791205       1.13684353
C       -1.64350138      -0.19105850       0.00332004
C       -0.42992270       0.54004105      -0.47082548
C        0.49414090       1.12866943       0.43620854
N        1.52200332       0.12269719       0.02568677
C        1.23248024      -1.14467318      -0.10876892
O        0.15089717      -1.67484429      -0.42053082
H       -2.19345180      -0.74872188      -0.76963604
H       -0.30706860       0.69799204      -1.53581675
H        0.88886612       2.10686012       0.18045443
H        0.21018758       1.05651386       1.48473756
H        2.10625170      -1.79556376       0.03832713
12
Frame=1 idx=010541 GeodesicLength=0.047556066193839494 rxn_smarts="[O:1]=[C:2]([C@@:3]1([H:9])[C:4]([H:10])([H:11])[N:5]=[C:6]([H:12])[O:7]1)[H:8]>>[O:1]=[C:2]([C@@:3]1([H:9])[C:4]([H:10])([H:11])[N:5]1[C:6](=[O:7])[H:12])[H:8]"
O       -2.02614749      -0.09742125       1.14060089
C       -1.64550575      -0.18773639       0.00484677
C       -0.42216387       0.52370964      -0.47504236
C        0.49684780       1.12590810       0.43661503
N        1.51791898       0.12418621       0.01688657
C        1.23919197      -1.14686478      -0.10624479
O        0.16130593      -1.66797047      -0.45107991
H       -2.20540652      -0.74217148      -0.76400260
H       -0.32039836       0.70849930      -1.53798778
H        0.88329325       2.10686771       0.17833534
H        0.21518479       1.05126855       1.48540880
H        2.10587927      -1.79827515       0.07166402
12
Frame=2 idx=010541 GeodesicLength=0.09497392839065716 rxn_smarts="[O:1]=[C:2]([C@@:3]1([H:9])[C:4]([H:10])([H:11])[N:5]=[C:6]([H:12])[O:7]1)[H:8]>>[O:1]=[C:2]([C@@:3]1([H:9])[C:4]([H:10])([H:11])[N:5]1[C:6](=[O:7])[H:12])[H:8]"
O       -2.02062694      -0.09796761       1.14439188
C       -1.64700986      -0.18452934       0.00628037
C       -0.41449588       0.50770717      -0.47951685
C        0.49957463       1.12327385       0.43676344
N        1.51372892       0.12543401       0.00850194
C        1.24533525      -1.14901623      -0.10360756
O        0.17220701      -1.66083140      -0.48179218
H       -2.21665830      -0.73582556      -0.75839428
H       -0.33396363       0.71927643      -1.53940779
H        0.87799173       2.10680085       0.17586322
H        0.22012246       1.04658848       1.48582646
H        2.10379461      -1.80091066       0.10509135
12
Frame=3 idx=010541 GeodesicLength=0.14228536281542545 rxn_smarts="[O:1]=[C:2]([C@@:3]1([H:9])[C:4]([H:10])([H:11])[N:5]=[C:6]([H:12])[O:7]1)[H:8]>>[O:1]=[C:2]([C@@:3]1([H:9])[C:4]([H:10])([H:11])[N:5]1[C:6](=[O:7])[H:12])[H:8]"
O       -2.01526813      -0.09825945       1.14779505
C       -1.64814699      -0.18138213       0.00758815
C       -0.40683752       0.49183459      -0.48416149
C        0.50220148       1.12071272       0.43685637
N        1.50943292       0.12636568       0.00106641
C        1.25099806      -1.15123803      -0.10029627
O        0.18354507      -1.65365550      -0.51148907
H       -2.22713651      -0.72988110      -0.75282521
H       -0.34737999       0.72978444      -1.54003539
H        0.87287476       2.10658557       0.17319055
H        0.22465648       1.04252445       1.48614195
H        2.10106037      -1.80339125       0.13616894
12
Frame=4 idx=010541 GeodesicLength=0.18947192563043658 rxn_smarts="[O:1]=[C:2]([C@@:3]1([H:9])[C:4]([H:10])([H:11])[N:5]=[C:6]([H:12])[O:7]1)[H:8]>>[O:1]=[C:2]([C@@:3]1([H:9])[C:4]([H:10])([H:11])[N:5]1[C:6](=[O:7])[H:12])[H:8]"
O       -2.00979996      -0.09870138       1.15095257
C       -1.64893113      -0.17824629       0.00877952
C       -0.39922698       0.47617149      -0.48898851
C        0.50473816       1.11824398       0.43683705
N        1.50502895       0.12702591      -0.00563654
C        1.25617082      -1.15348445      -0.09655783
O        0.19531005      -1.64635173      -0.54045592
H       -2.23692169      -0.72420762      -0.74728561
H       -0.36069423       0.74009164      -1.53989764
H        0.86793008       2.10625118       0.17029306
H        0.22886664       1.03902449       1.48630515
H        2.09752930      -1.80581720       0.16565469
12
Frame=5 idx=010541 GeodesicLength=0.23659639440059166 rxn_smarts="[O:1]=[C:2]([C@@:3]1([H:9])[C:4]([H:10])([H:11])[N:5]=[C:6]([H:12])[O:7]1)[H:8]>>[O:1]=[C:2]([C@@:3]1([H:9])[C:4]([H:10])([H:11])[N:5]1[C:6](=[O:7])[H:12])[H:8]"
O       -2.00417749      -0.09931639       1.15394964
C       -1.64933356      -0.17522329       0.00991128
C       -0.39169735       0.46075480      -0.49401038
C        0.50722627       1.11586934       0.43669234
N        1.50055377       0.12748879      -0.01182076
C        1.26090496      -1.15571747      -0.09269512
O        0.20754491      -1.63887618      -0.56904567
H       -2.24608129      -0.71883627      -0.74173991
H       -0.37401004       0.75027197      -1.53904401
H        0.86315134       2.10585852       0.16720730
H        0.23289757       1.03596295       1.48634075
H        2.09302090      -1.80823676       0.19425453
12
Frame=6 idx=010541 GeodesicLength=0.28368452768263586 rxn_smarts="[O:1]=[C:2]([C@@:3]1([H:9])[C:4]([H:10])([H:11])[N:5]=[C:6]([H:12])[O:7]1)[H:8]>>[O:1]=[C:2]([C@@:3]1([H:9])[C:4]([H:10])([H:11])[N:5]1[C:6](=[O:7])[H:12])[H:8]"
O       -1.99833255      -0.10014242       1.15683643
C       -1.64932148      -0.17237902       0.01102922
C       -0.38426606       0.44561074      -0.49922843
C        0.50968329       1.11358187       0.43640416
N        1.49602783       0.12780097      -0.01763185
C        1.26523503      -1.15789949      -0.08890597
O        0.22030789      -1.63115239      -0.59751388
H       -2.25464131      -0.71376791      -0.73614013
H       -0.38738057       0.76034570      -1.53748579
H        0.85851629       2.10542184       0.16395092
H        0.23683207       1.03325443       1.48623699
H        2.08733957      -1.81067430       0.22244833
12
Frame=7 idx=010541 GeodesicLength=0.3307414642035634 rxn_smarts="[O:1]=[C:2]([C@@:3]1([H:9])[C:4]([H:10])([H:11])[N:5]=[C:6]([H:12])[O:7]1)[H:8]>>[O:1]=[C:2]([C@@:3]1([H:9])[C:4]([H:10])([H:11])[N:5]1[C:6](=[O:7])[H:12])[H:8]"
O       -1.99198768      -0.10160221       1.15971848
C       -1.64890443      -0.16966845       0.01212647
C       -0.37694195       0.43079633      -0.50467382
C        0.51213126       1.11141244       0.43593264
N        1.49146494       0.12802122      -0.02320227
C        1.26919006      -1.15998156      -0.08539063
O        0.23356865      -1.62310542      -0.62595710
H       -2.26264863      -0.70892198      -0.73049251
H       -0.40080322       0.77034398      -1.53527180
H        0.85402451       2.10498700       0.16050439
H        0.24074757       1.03087254       1.48596200
H        2.08015893      -1.81315389       0.25074415
12
Frame=8 idx=010541 GeodesicLength=0.3777957533413545 rxn_smarts="[O:1]=[C:2]([C@@:3]1([H:9])[C:4]([H:10])([H:11])[N:5]=[C:6]([H:12])[O:7]1)[H:8]>>[O:1]=[C:2]([C@@:3]1([H:9])[C:4]([H:10])([H:11])[N:5]1[C:6](=[O:7])[H:12])[H:8]"
O       -1.98487158      -0.10410230       1.16270482
C       -1.64807103      -0.16709655       0.01321267
C       -0.36972887       0.41636850      -0.51037873
C        0.51460150       1.10941357       0.43524462
N        1.48687902       0.12819768      -0.02860826
C        1.27275685      -1.16193916      -0.08224434
O        0.24733153      -1.61465710      -0.65455385
H       -2.27014654      -0.70424984      -0.72480065
H       -0.41429122       0.78029639      -1.53246464
H        0.84971091       2.10461823       0.15682831
H        0.24471132       1.02884990       1.48549710
H        2.07111810      -1.81569933       0.27956295
12
Frame=9 idx=010541 GeodesicLength=0.4248807811028304 rxn_smarts="[O:1]=[C:2]([C@@:3]1([H:9])[C:4]([H:10])([H:11])[N:5]=[C:6]([H:12])[O:7]1)[H:8]>>[O:1]=[C:2]([C@@:3]1([H:9])[C:4]([H:10])([H:11])[N:5]1[C:6](=[O:7])[H:12])[H:8]"
O       -1.97694018      -0.10765057       1.16581548
C       -1.64675502      -0.16474627       0.01434891
C       -0.36261162       0.40233243      -0.51633605
C        0.51710486       1.10757350       0.43432350
N        1.48229251       0.12836347      -0.03393818
C        1.27597772      -1.16373234      -0.07960688
O        0.26169619      -1.60570306      -0.68350027
H       -2.27709208      -0.69978374      -0.71898349
H       -0.42785322       0.79018532      -1.52904903
H        0.84555271       2.10429966       0.15292420
H        0.24876423       1.02713579       1.48481708
H        2.05986391      -1.81827420       0.30918473
12
Frame=10 idx=010541 GeodesicLength=0.4720308021711163 rxn_smarts="[O:1]=[C:2]([C@@:3]1([H:9])[C:4]([H:10])([H:11])[N:5]=[C:6]([H:12])[O:7]1)[H:8]>>[O:1]=[C:2]([C@@:3]1([H:9])[C:4]([H:10])([H:11])[N:5]1[C:6](=[O:7])[H:12])[H:8]"
O       -1.96783684      -0.11284832       1.16915634
C       -1.64498972      -0.16252823       0.01549941
C       -0.35558290       0.38875132      -0.52258732
C        0.51966725       1.10598227       0.43314380
N        1.47770989       0.12855979      -0.03917003
C        1.27881414      -1.16535487      -0.07743074
O        0.27659275      -1.59619510      -0.71273976
H       -2.28354743      -0.69542217      -0.71309885
H       -0.44143262       0.79998700      -1.52513376
H        0.84160412       2.10412459       0.14872500
H        0.25292883       1.02585000       1.48390785
H        2.04607252      -1.82090627       0.33972805
12
Frame=11 idx=010541 GeodesicLength=0.5192474856507442 rxn_smarts="[O:1]=[C:2]([C@@:3]1([H:9])[C:4]([H:10])([H:11])[N:5]=[C:6]([H:12])[O:7]1)[H:8]>>[O:1]=[C:2]([C@@:3]1([H:9])[C:4]([H:10])([H:11])[N:5]1[C:6](=[O:7])[H:12])[H:8]"
O       -1.95850712      -0.11820082       1.17239664
C       -1.64282866      -0.16056080       0.01670611
C       -0.34861719       0.37543003      -0.52901319
C        0.52221436       1.10451119       0.43187927
N        1.47314436       0.12875476      -0.04412360
C        1.28143249      -1.16687016      -0.07551407
O        0.29204927      -1.58632867      -0.74174360
H       -2.28947037      -0.69141239      -0.70709452
H       -0.45487724       0.80939684      -1.52068373
H        0.83772039       2.10399569       0.14443801
H        0.25707532       1.02480650       1.48292265
H        2.03066438      -1.82352216       0.36983002
12
Frame=12 idx=010541 GeodesicLength=0.5665136511400881 rxn_smarts="[O:1]=[C:2]([C@@:3]1([H:9])[C:4]([H:10])([H:11])[N:5]=[C:6]([H:12])[O:7]1)[H:8]>>[O:1]=[C:2]([C@@:3]1([H:9])[C:4]([H:10])([H:11])[N:5]1[C:6](=[O:7])[H:12])[H:8]"
O       -1.94872201      -0.12417106       1.17562722
C       -1.64028899      -0.15875189       0.01797028
C       -0.34169629       0.36240684      -0.53561829
C        0.52475044       1.10320134       0.43049113
N        1.46860483       0.12897691      -0.04885266
C        1.28384572      -1.16824808      -0.07390842
O        0.30804661      -1.57603125      -0.77051456
H       -2.29488391      -0.68763079      -0.70095733
H       -0.46810925       0.81838066      -1.51574677
H        0.83390706       2.10393421       0.14000799
H        0.26119473       1.02406487       1.48181097
H        2.01335104      -1.82613175       0.39969044
12
Frame=13 idx=010541 GeodesicLength=0.6139505304171924 rxn_smarts="[O:1]=[C:2]([C@@:3]1([H:9])[C:4]([H:10])([H:11])[N:5]=[C:6]([H:12])[O:7]1)[H:8]>>[O:1]=[C:2]([C@@:3]1([H:9])[C:4]([H:10])([H:11])[N:5]1[C:6](=[O:7])[H:12])[H:8]"
O       -1.93789600      -0.13147271       1.17905118
C       -1.63729780      -0.15719601       0.01930036
C       -0.33482943       0.34977422      -0.54248697
C        0.52735976       1.10216244       0.42892096
N        1.46411549       0.12929864      -0.05346307
C        1.28600775      -1.16947916      -0.07273825
O        0.32462877      -1.56519893      -0.79944831
H       -2.29983854      -0.68407213      -0.69472994
H       -0.48128911       0.82711688      -1.51044817
H        0.83025781       2.10409664       0.13535217
H        0.26546934       1.02370356       1.48057089
H        1.99331199      -1.82873346       0.43011914
12
Frame=14 idx=010541 GeodesicLength=0.6615567304023602 rxn_smarts="[O:1]=[C:2]([C@@:3]1([H:9])[C:4]([H:10])([H:11])[N:5]=[C:6]([H:12])[O:7]1)[H:8]>>[O:1]=[C:2]([C@@:3]1([H:9])[C:4]([H:10])([H:11])[N:5]1[C:6](=[O:7])[H:12])[H:8]"
O       -1.92604555      -0.14019418       1.18261759
C       -1.63382821      -0.15577786       0.02075859
C       -0.32794804       0.33750262      -0.54955933
C        0.52997234       1.10136264       0.42714351
N        1.45963960       0.12968454      -0.05789888
C        1.28789929      -1.17050996      -0.07189870
O        0.34185256      -1.55372332      -0.82836626
H       -2.30418696      -0.68064986      -0.68828278
H       -0.49419689       0.83547020      -1.50473071
H        0.82670825       2.10434212       0.13038547
H        0.26970371       1.02379798       1.47911896
H        1.97042990      -1.83130493       0.46071255
12
Frame=15 idx=010541 GeodesicLength=0.7094152286130306 rxn_smarts="[O:1]=[C:2]([C@@:3]1([H:9])[C:4]([H:10])([H:11])[N:5]=[C:6]([H:12])[O:7]1)[H:8]>>[O:1]=[C:2]([C@@:3]1([H:9])[C:4]([H:10])([H:11])[N:5]1[C:6](=[O:7])[H:12])[H:8]"
O       -1.91344644      -0.14977292       1.18619106
C       -1.62989532      -0.15469889       0.02234726
C       -0.32107941       0.32551850      -0.55680034
C        0.53267048       1.10074239       0.42523072
N        1.45528993       0.13022955      -0.06224370
C        1.28976249      -1.17131287      -0.07156953
O        0.35972836      -1.54164655      -0.85723331
H       -2.30806766      -0.67753510      -0.68162486
H       -0.50697123       0.84334102      -1.49862344
H        0.82324332       2.10471108       0.12529699
H        0.27413612       1.02408187       1.47752095
H        1.94462937      -1.83365807       0.49150818
12
Frame=16 idx=010541 GeodesicLength=0.7574341270771321 rxn_smarts="[O:1]=[C:2]([C@@:3]1([H:9])[C:4]([H:10])([H:11])[N:5]=[C:6]([H:12])[O:7]1)[H:8]>>[O:1]=[C:2]([C@@:3]1([H:9])[C:4]([H:10])([H:11])[N:5]1[C:6](=[O:7])[H:12])[H:8]"
O       -1.90047613      -0.15968048       1.18975119
C       -1.62556992      -0.15387884       0.02405658
C       -0.31420181       0.31375437      -0.56415756
C        0.53536309       1.10031826       0.42327975
N        1.45100152       0.13086356      -0.06631373
C        1.29155859      -1.17200687      -0.07143111
O        0.37821188      -1.52914267      -0.88569738
H       -2.31143847      -0.67476679      -0.67479253
H       -0.51941969       0.85058403      -1.49223129
H        0.81978098       2.10522205       0.12010471
H        0.27855734       1.02466483       1.47590823
H        1.91663263      -1.83593144       0.52152316
