14
Frame=0 idx=011104 GeodesicLength=0.0 rxn_smarts="[C:1]1([H:8])([H:9])[C@:2]2([H:10])[C@@:3]3([H:11])[C@:4]2([H:12])[N:5]2[C@:6]1([H:13])[C@@:7]32[H:14]>>[C:1]1([H:8])([H:9])[C@:2]2([H:10])[C@@:3]3([H:11])[C@:4]2([H:12])[N:5]([H:13])[C@@:7]3([H:14])[C:6]1"
C        1.17088164      -0.21824713      -0.79571998
C       -0.01630569      -1.04074741      -0.35194730
C       -1.22059150      -0.16441991      -0.21510075
C       -0.47164119      -0.60032752       1.00505943
N        0.01468569       0.78215437       1.25800757
C        0.88195490       1.15058437      -0.24744759
C       -0.57854458       1.23055002      -0.01642281
H        1.21047393      -0.12864528      -1.88634697
H        2.12593785      -0.62040031      -0.45556337
H       -0.14848749      -2.08163586      -0.61711053
H       -2.22556539      -0.39002833      -0.53153712
H       -0.72450901      -1.24370284       1.83340900
H        1.12977463       1.17259841       1.07121512
H       -1.14806378       2.15226746      -0.05049467
14
Frame=1 idx=011104 GeodesicLength=0.03621891767930088 rxn_smarts="[C:1]1([H:8])([H:9])[C@:2]2([H:10])[C@@:3]3([H:11])[C@:4]2([H:12])[N:5]2[C@:6]1([H:13])[C@@:7]32[H:14]>>[C:1]1([H:8])([H:9])[C@:2]2([H:10])[C@@:3]3([H:11])[C@:4]2([H:12])[N:5]([H:13])[C@@:7]3([H:14])[C:6]1"
C        1.17046437      -0.21936852      -0.79604749
C       -0.01660642      -1.04164143      -0.35205276
C       -1.22140115      -0.16516814      -0.21548031
C       -0.47242667      -0.60035417       1.00492372
N        0.01524510       0.78125714       1.25747190
C        0.88031669       1.14749921      -0.24489595
C       -0.57995740       1.22956296      -0.01723384
H        1.20959205      -0.12749066      -1.88657101
H        2.12584942      -0.62186710      -0.45707437
H       -0.14867614      -2.08238246      -0.61768368
H       -2.22590892      -0.39131376      -0.53322802
H       -0.72659624      -1.24411917       1.83266298
H        1.13805183       1.18319303       1.07533394
H       -1.14794652       2.15219306      -0.05012511
14
Frame=2 idx=011104 GeodesicLength=0.0724361400914311 rxn_smarts="[C:1]1([H:8])([H:9])[C@:2]2([H:10])[C@@:3]3([H:11])[C@:4]2([H:12])[N:5]2[C@:6]1([H:13])[C@@:7]32[H:14]>>[C:1]1([H:8])([H:9])[C@:2]2([H:10])[C@@:3]3([H:11])[C@:4]2([H:12])[N:5]([H:13])[C@@:7]3([H:14])[C:6]1"
C        1.17004241      -0.22049757      -0.79636432
C       -0.01691519      -1.04254769      -0.35215952
C       -1.22221491      -0.16592246      -0.21586053
C       -0.47323086      -0.60040481       1.00478855
N        0.01580232       0.78032904       1.25696108
C        0.87869933       1.14438964      -0.24228608
C       -0.58135799       1.22856007      -0.01803303
H        1.20871039      -0.12631221      -1.88677607
H        2.12575158      -0.62335360      -0.45857959
H       -0.14887574      -2.08313697      -0.61827200
H       -2.22625441      -0.39259180      -0.53492868
H       -0.72869888      -1.24456605       1.83191054
H        1.14634326       1.19394648       1.07934086
H       -1.14780130       2.15210793      -0.04974123
14
Frame=3 idx=011104 GeodesicLength=0.10865014304012213 rxn_smarts="[C:1]1([H:8])([H:9])[C@:2]2([H:10])[C@@:3]3([H:11])[C@:4]2([H:12])[N:5]2[C@:6]1([H:13])[C@@:7]32[H:14]>>[C:1]1([H:8])([H:9])[C@:2]2([H:10])[C@@:3]3([H:11])[C@:4]2([H:12])[N:5]([H:13])[C@@:7]3([H:14])[C:6]1"
C        1.16961592      -0.22163406      -0.79666952
C       -0.01723238      -1.04346590      -0.35226802
C       -1.22303300      -0.16668250      -0.21624175
C       -0.47405465      -0.60048016       1.00465360
N        0.01635461       0.77936953       1.25647637
C        0.87710224       1.14125571      -0.23961770
C       -0.58274619       1.22754156      -0.01881981
H        1.20783073      -0.12511023      -1.88696094
H        2.12564422      -0.62485914      -0.46007674
H       -0.14908665      -2.08389893      -0.61887650
H       -2.22660281      -0.39386117      -0.53663777
H       -0.73081535      -1.24504514       1.83115134
H        1.15465146       1.20485839       1.08323085
H       -1.14762814       2.15201203      -0.04934340
14
Frame=4 idx=011104 GeodesicLength=0.1448594151885409 rxn_smarts="[C:1]1([H:8])([H:9])[C@:2]2([H:10])[C@@:3]3([H:11])[C@:4]2([H:12])[N:5]2[C@:6]1([H:13])[C@@:7]32[H:14]>>[C:1]1([H:8])([H:9])[C@:2]2([H:10])[C@@:3]3([H:11])[C@:4]2([H:12])[N:5]([H:13])[C@@:7]3([H:14])[C:6]1"
C        1.16918507      -0.22277775      -0.79696211
C       -0.01755837      -1.04439572      -0.35237872
C       -1.22385569      -0.16744785      -0.21662437
C       -0.47489897      -0.60058091       1.00451854
N        0.01689912       0.77837811       1.25601904
C        0.87552485       1.13809749      -0.23689038
C       -0.58412186       1.22650765      -0.01959365
H        1.20695473      -0.12388487      -1.88712442
H        2.12552723      -0.62638304      -0.46156357
H       -0.14930911      -2.08466789      -0.61949804
H       -2.22695508      -0.39512061      -0.53835408
H       -0.73294407      -1.24555815       1.83038507
H        1.16297925       1.21592816       1.08699883
H       -1.14742709       2.15190538      -0.04893215
14
Frame=5 idx=011104 GeodesicLength=0.1810621486701781 rxn_smarts="[C:1]1([H:8])([H:9])[C@:2]2([H:10])[C@@:3]3([H:11])[C@:4]2([H:12])[N:5]2[C@:6]1([H:13])[C@@:7]32[H:14]>>[C:1]1([H:8])([H:9])[C@:2]2([H:10])[C@@:3]3([H:11])[C@:4]2([H:12])[N:5]([H:13])[C@@:7]3([H:14])[C:6]1"
C        1.16874996      -0.22392827      -0.79724111
C       -0.01789350      -1.04533683      -0.35249198
C       -1.22468324      -0.16821813      -0.21700880
C       -0.47576482      -0.60070775       1.00438312
N        0.01743286       0.77735433       1.25559044
C        0.87396662       1.13491508      -0.23410346
C       -0.58548494       1.22545857      -0.02035401
H        1.20608398      -0.12263612      -1.88726533
H        2.12540051      -0.62792453      -0.46303796
H       -0.14954321      -2.08544344      -0.62013735
H       -2.22731215      -0.39636895      -0.54007648
H       -0.73508360      -1.24610671       1.82961148
H        1.17132976       1.22715474       1.09063950
H       -1.14719826       2.15178800      -0.04850806
14
Frame=6 idx=011104 GeodesicLength=0.21725731943989096 rxn_smarts="[C:1]1([H:8])([H:9])[C@:2]2([H:10])[C@@:3]3([H:11])[C@:4]2([H:12])[N:5]2[C@:6]1([H:13])[C@@:7]32[H:14]>>[C:1]1([H:8])([H:9])[C@:2]2([H:10])[C@@:3]3([H:11])[C@:4]2([H:12])[N:5]([H:13])[C@@:7]3([H:14])[C:6]1"
C        1.16831071      -0.22508523      -0.79750548
C       -0.01823812      -1.04628886      -0.35260823
C       -1.22551593      -0.16899298      -0.21739549
C       -0.47665324      -0.60086139       1.00424700
N        0.01795263       0.77629775       1.25519192
C        0.87242699       1.13170853      -0.23125606
C       -0.58683538       1.22439459      -0.02110046
H        1.20522001      -0.12136383      -1.88738242
H        2.12526396      -0.62948286      -0.46449781
H       -0.14978900      -2.08622517      -0.62079512
H       -2.22767503      -0.39760508      -0.54180380
H       -0.73723243      -1.24669251       1.82883032
H        1.17970656       1.23853708       1.09414763
H       -1.14694174       2.15165996      -0.04807201
14
Frame=7 idx=011104 GeodesicLength=0.25343968321988275 rxn_smarts="[C:1]1([H:8])([H:9])[C@:2]2([H:10])[C@@:3]3([H:11])[C@:4]2([H:12])[N:5]2[C@:6]1([H:13])[C@@:7]32[H:14]>>[C:1]1([H:8])([H:9])[C@:2]2([H:10])[C@@:3]3([H:11])[C@:4]2([H:12])[N:5]([H:13])[C@@:7]3([H:14])[C:6]1"
C        1.16786758      -0.22624799      -0.79775423
C       -0.01859259      -1.04725143      -0.35272777
C       -1.22635417      -0.16977208      -0.21778488
C       -0.47756541      -0.60104255       1.00411026
N        0.01845525       0.77520816       1.25482538
C        0.87090584       1.12847817      -0.22834698
C       -0.58817306       1.22331604      -0.02183253
H        1.20436454      -0.12006741      -1.88747472
H        2.12511767      -0.63105705      -0.46594110
H       -0.15004659      -2.08701275      -0.62147197
H       -2.22804493      -0.39882812      -0.54353512
H       -0.73938932      -1.24731733       1.82804185
H        1.18811280       1.25007298       1.09751681
H       -1.14665761       2.15152136      -0.04762498
14
Frame=8 idx=011104 GeodesicLength=0.2896247039392663 rxn_smarts="[C:1]1([H:8])([H:9])[C@:2]2([H:10])[C@@:3]3([H:11])[C@:4]2([H:12])[N:5]2[C@:6]1([H:13])[C@@:7]32[H:14]>>[C:1]1([H:8])([H:9])[C@:2]2([H:10])[C@@:3]3([H:11])[C@:4]2([H:12])[N:5]([H:13])[C@@:7]3([H:14])[C:6]1"
C        1.16742066      -0.22741695      -0.79798494
C       -0.01895751      -1.04822405      -0.35285167
C       -1.22719798      -0.17055433      -0.21817785
C       -0.47850304      -0.60125269       1.00397087
N        0.01893898       0.77408250       1.25448997
C        0.86939822       1.12522389      -0.22538065
C       -0.58949891       1.22222330      -0.02254724
H        1.20352050      -0.11875128      -1.88753892
H        2.12496132      -0.63264540      -0.46736177
H       -0.15031578      -2.08780512      -0.62216948
H       -2.22842195      -0.40003540      -0.54526960
H       -0.74155352      -1.24798334       1.82724342
H        1.19655662       1.26176674       1.10074059
H       -1.14634760       2.15137214      -0.04716272
14
Frame=9 idx=011104 GeodesicLength=0.32578323569714285 rxn_smarts="[C:1]1([H:8])([H:9])[C@:2]2([H:10])[C@@:3]3([H:11])[C@:4]2([H:12])[N:5]2[C@:6]1([H:13])[C@@:7]32[H:14]>>[C:1]1([H:8])([H:9])[C@:2]2([H:10])[C@@:3]3([H:11])[C@:4]2([H:12])[N:5]([H:13])[C@@:7]3([H:14])[C:6]1"
C        1.16697010      -0.22859127      -0.79819895
C       -0.01933232      -1.04920709      -0.35297891
C       -1.22804741      -0.17134063      -0.21857361
C       -0.47946516      -0.60149147       1.00383082
N        0.01940272       0.77292261       1.25418838
C        0.86790876       1.12194539      -0.22235233
C       -0.59081143       1.22111590      -0.02324667
H        1.20268522      -0.11741019      -1.88757684
H        2.12479604      -0.63424874      -0.46876648
H       -0.15059501      -2.08860335      -0.62288600
H       -2.22880622      -0.40122872      -0.54700862
H       -0.74372913      -1.24868854       1.82643762
H        1.20503343       1.27361404       1.10381968
H       -1.14600958       2.15121205      -0.04668807
14
Frame=10 idx=011104 GeodesicLength=0.3619410647532456 rxn_smarts="[C:1]1([H:8])([H:9])[C@:2]2([H:10])[C@@:3]3([H:11])[C@:4]2([H:12])[N:5]2[C@:6]1([H:13])[C@@:7]32[H:14]>>[C:1]1([H:8])([H:9])[C@:2]2([H:10])[C@@:3]3([H:11])[C@:4]2([H:12])[N:5]([H:13])[C@@:7]3([H:14])[C:6]1"
C        1.16651624      -0.22977230      -0.79839452
C       -0.01971652      -1.05020232      -0.35310980
C       -1.22890250      -0.17213078      -0.21897262
C       -0.48045313      -0.60176131       1.00369113
N        0.01984341       0.77172674       1.25392428
C        0.86643360       1.11864300      -0.21926070
C       -0.59211248       1.21999506      -0.02392736
H        1.20186085      -0.11604670      -1.88758764
H        2.12462226      -0.63586813      -0.47015034
H       -0.15088402      -2.08940980      -0.62362329
H       -2.22919612      -0.40240627      -0.54875774
H       -0.74592099      -1.24943795       1.82562355
H        1.21355541       1.28562682       1.10673754
H       -1.14564602       2.15104395      -0.04619249
14
Frame=11 idx=011104 GeodesicLength=0.3980942414134404 rxn_smarts="[C:1]1([H:8])([H:9])[C@:2]2([H:10])[C@@:3]3([H:11])[C@:4]2([H:12])[N:5]2[C@:6]1([H:13])[C@@:7]32[H:14]>>[C:1]1([H:8])([H:9])[C@:2]2([H:10])[C@@:3]3([H:11])[C@:4]2([H:12])[N:5]([H:13])[C@@:7]3([H:14])[C:6]1"
C        1.16605868      -0.23095974      -0.79856955
C       -0.02011122      -1.05120779      -0.35324192
C       -1.22976268      -0.17292571      -0.21937213
C       -0.48146641      -0.60206223       1.00355021
N        0.02026418       0.77049050       1.25369603
C        0.86497619       1.11531124      -0.21610514
C       -0.59339879       1.21885616      -0.02458789
H        1.20104498      -0.11465969      -1.88756686
H        2.12443870      -0.63750437      -0.47151576
H       -0.15118766      -2.09021819      -0.62438350
H       -2.22958878      -0.40357103      -0.55051950
H       -0.74813439      -1.25022887       1.82479655
H        1.22212081       1.29782066       1.10949122
H       -1.14525359       2.15085906      -0.04567176
14
Frame=12 idx=011104 GeodesicLength=0.43423980986850336 rxn_smarts="[C:1]1([H:8])([H:9])[C@:2]2([H:10])[C@@:3]3([H:11])[C@:4]2([H:12])[N:5]2[C@:6]1([H:13])[C@@:7]32[H:14]>>[C:1]1([H:8])([H:9])[C@:2]2([H:10])[C@@:3]3([H:11])[C@:4]2([H:12])[N:5]([H:13])[C@@:7]3([H:14])[C:6]1"
C        1.16559596      -0.23214917      -0.79872361
C       -0.02051455      -1.05222374      -0.35337317
C       -1.23062632      -0.17372465      -0.21977505
C       -0.48250859      -0.60239467       1.00340988
N        0.02066100       0.76921537       1.25350812
C        0.86353270       1.11195662      -0.21288155
C       -0.59467084       1.21770246      -0.02522376
H        1.20023194      -0.11324674      -1.88751327
H        2.12424387      -0.63915250      -0.47286252
H       -0.15149828      -2.09103267      -0.62515860
H       -2.22997987      -0.40472602      -0.55230128
H       -0.75037862      -1.25106256       1.82395717
H        1.23074649       1.31017709       1.11206367
H       -1.14483491       2.15066118      -0.04512603
14
Frame=13 idx=011104 GeodesicLength=0.4703767658658988 rxn_smarts="[C:1]1([H:8])([H:9])[C@:2]2([H:10])[C@@:3]3([H:11])[C@:4]2([H:12])[N:5]2[C@:6]1([H:13])[C@@:7]32[H:14]>>[C:1]1([H:8])([H:9])[C@:2]2([H:10])[C@@:3]3([H:11])[C@:4]2([H:12])[N:5]([H:13])[C@@:7]3([H:14])[C:6]1"
C        1.16512921      -0.23334302      -0.79885903
C       -0.02092529      -1.05325189      -0.35350425
C       -1.23149397      -0.17452686      -0.22018108
C       -0.48357889      -0.60275976       1.00327172
N        0.02103427       0.76789941       1.25336363
C        0.86210582       1.10857549      -0.20958988
C       -0.59592838       1.21653434      -0.02583518
H        1.19942254      -0.11180955      -1.88743275
H        2.12404159      -0.64081726      -0.47419711
H       -0.15181407      -2.09185541      -0.62594831
H       -2.23037070      -0.40586863      -0.55410391
H       -0.75265927      -1.25194060       1.82310613
H        1.23942733       1.32271195       1.11446199
H       -1.14439020       2.15045180      -0.04455199
14
Frame=14 idx=011104 GeodesicLength=0.5065089025264377 rxn_smarts="[C:1]1([H:8])([H:9])[C@:2]2([H:10])[C@@:3]3([H:11])[C@:4]2([H:12])[N:5]2[C@:6]1([H:13])[C@@:7]32[H:14]>>[C:1]1([H:8])([H:9])[C@:2]2([H:10])[C@@:3]3([H:11])[C@:4]2([H:12])[N:5]([H:13])[C@@:7]3([H:14])[C:6]1"
C        1.16465889      -0.23454077      -0.79897227
C       -0.02134457      -1.05429161      -0.35363611
C       -1.23236577      -0.17533318      -0.22059036
C       -0.48467803      -0.60315931       1.00313413
N        0.02138246       0.76654055       1.25326279
C        0.86069397       1.10516772      -0.20622852
C       -0.59717133       1.21535035      -0.02642048
H        1.19862028      -0.11034528      -1.88731924
H        2.12383052      -0.64249871      -0.47551474
H       -0.15213643      -2.09268492      -0.62675564
H       -2.23076205      -0.40700046      -0.55592384
H       -0.75498063      -1.25286417       1.82224005
H        1.24817091       1.33543073       1.11667084
H       -1.14391820       2.15022906      -0.04394660
14
Frame=15 idx=011104 GeodesicLength=0.5426378491426282 rxn_smarts="[C:1]1([H:8])([H:9])[C@:2]2([H:10])[C@@:3]3([H:11])[C@:4]2([H:12])[N:5]2[C@:6]1([H:13])[C@@:7]32[H:14]>>[C:1]1([H:8])([H:9])[C@:2]2([H:10])[C@@:3]3([H:11])[C@:4]2([H:12])[N:5]([H:13])[C@@:7]3([H:14])[C:6]1"
C        1.16418593      -0.23574305      -0.79906093
C       -0.02177285      -1.05534332      -0.35376995
C       -1.23324186      -0.17614388      -0.22100249
C       -0.48580604      -0.60359609       1.00299689
N        0.02170537       0.76513552       1.25320779
C        0.85929657       1.10173220      -0.20279628
C       -0.59839952       1.21414951      -0.02697682
H        1.19782934      -0.10885358      -1.88717007
H        2.12361017      -0.64419848      -0.47680999
H       -0.15246816      -2.09351961      -0.62758797
H       -2.23115574      -0.40812076      -0.55775652
H       -0.75734520      -1.25383660       1.82135738
H        1.25697971       1.34834581       1.11867886
H       -1.14341773       2.14999233      -0.04330989
14
Frame=16 idx=011104 GeodesicLength=0.5787641895654398 rxn_smarts="[C:1]1([H:8])([H:9])[C@:2]2([H:10])[C@@:3]3([H:11])[C@:4]2([H:12])[N:5]2[C@:6]1([H:13])[C@@:7]32[H:14]>>[C:1]1([H:8])([H:9])[C@:2]2([H:10])[C@@:3]3([H:11])[C@:4]2([H:12])[N:5]([H:13])[C@@:7]3([H:14])[C:6]1"
C        1.16371010      -0.23695044      -0.79912340
C       -0.02221020      -1.05640793      -0.35390477
C       -1.23412205      -0.17695942      -0.22141696
C       -0.48696406      -0.60407177       1.00286070
N        0.02200201       0.76368204       1.25320105
C        0.85791336       1.09826757      -0.19929086
C       -0.59961243       1.21293100      -0.02750174
H        1.19704985      -0.10733199      -1.88698292
H        2.12338031      -0.64591803      -0.47808299
H       -0.15281025      -2.09435989      -0.62844569
H       -2.23155000      -0.40922788      -0.55960732
H       -0.75975554      -1.25485982       1.82045795
H        1.26585727       1.36146591       1.12047538
H       -1.14288836       2.14974065      -0.04263842
