13
Frame=0 idx=004025 GeodesicLength=0.0 rxn_smarts="[C:1]([C:2]1([C:5]#[N:6])[C:3]([H:10])([H:11])[C:4]1([H:12])[H:13])([H:7])([H:8])[H:9]>>[C:1]([C:4]([C:3]([C+:2]=[C:5]=[N-:6])([H:10])[H:11])([H:12])[H:13])([H:7])([H:8])[H:9]"
C       -1.14235084      -0.81198410       0.07018498
C       -0.18684407       0.80654417       0.53547187
C        1.24815528       0.46561346       0.63293818
C        0.66888730      -0.64384088      -0.17465706
C       -0.51006839       1.67006142      -0.55527776
N       -0.84149976       2.42399916      -1.36425693
H       -1.31044635      -1.26427206       1.04097297
H       -1.96485590      -0.15091581      -0.17967710
H       -1.14661856      -1.58353762      -0.70795203
H        1.60602074       0.20098379       1.62325162
H        1.93600815       1.09249386       0.07589502
H        0.81491542      -1.63028412       0.24536610
H        0.82869699      -0.57486125      -1.24225992
13
Frame=1 idx=004025 GeodesicLength=0.060287257244141274 rxn_smarts="[C:1]([C:2]1([C:5]#[N:6])[C:3]([H:10])([H:11])[C:4]1([H:12])[H:13])([H:7])([H:8])[H:9]>>[C:1]([C:4]([C:3]([C+:2]=[C:5]=[N-:6])([H:10])[H:11])([H:12])[H:13])([H:7])([H:8])[H:9]"
C       -1.14331095      -0.81991324       0.08196464
C       -0.19026599       0.81341160       0.51267418
C        1.23993693       0.46496012       0.63642191
C        0.66943852      -0.64172217      -0.18520908
C       -0.50368584       1.68141590      -0.57524333
N       -0.81643243       2.44617132      -1.38156413
H       -1.28624707      -1.27767539       1.05472885
H       -1.98082675      -0.16822244      -0.14353270
H       -1.16737306      -1.58715870      -0.69985390
H        1.57103100       0.19293847       1.63407164
H        1.94002849       1.09125411       0.09404322
H        0.83490810      -1.62999985       0.22350529
H        0.83279905      -0.56545974      -1.25200660
13
Frame=2 idx=004025 GeodesicLength=0.1201285024826762 rxn_smarts="[C:1]([C:2]1([C:5]#[N:6])[C:3]([H:10])([H:11])[C:4]1([H:12])[H:13])([H:7])([H:8])[H:9]>>[C:1]([C:4]([C:3]([C+:2]=[C:5]=[N-:6])([H:10])[H:11])([H:12])[H:13])([H:7])([H:8])[H:9]"
C       -1.14404943      -0.82782122       0.09373084
C       -0.19386359       0.81999330       0.48935626
C        1.23109415       0.46423404       0.63989281
C        0.66999207      -0.63974000      -0.19593038
C       -0.49669273       1.69322928      -0.59530888
N       -0.79107462       2.46822310      -1.39889692
H       -1.26168889      -1.29119571       1.06775763
H       -1.99591684      -0.18561120      -0.10595029
H       -1.18850502      -1.59070298      -0.69127530
H        1.53515320       0.18502139       1.64421536
H        1.94338205       1.08980938       0.11264832
H        0.85488555      -1.62934333       0.20158268
H        0.83728409      -0.55609606      -1.26182211
13
Frame=3 idx=004025 GeodesicLength=0.1792251539004109 rxn_smarts="[C:1]([C:2]1([C:5]#[N:6])[C:3]([H:10])([H:11])[C:4]1([H:12])[H:13])([H:7])([H:8])[H:9]>>[C:1]([C:4]([C:3]([C+:2]=[C:5]=[N-:6])([H:10])[H:11])([H:12])[H:13])([H:7])([H:8])[H:9]"
C       -1.14458113      -0.83564236       0.10543863
C       -0.19760672       0.82619113       0.46552767
C        1.22162430       0.46341917       0.64327691
C        0.67057010      -0.63785938      -0.20674262
C       -0.48898503       1.70544084      -0.61536366
N       -0.76566376       2.48983695      -1.41609287
H       -1.23691433      -1.30477527       1.07996180
H       -2.01000957      -0.20296202      -0.06710225
H       -1.20996922      -1.59403070      -0.68221348
H        1.49845820       0.17717997       1.65350208
H        1.94604502       1.08811471       0.13163367
H        0.87479777      -1.62816123       0.17972292
H        0.84223435      -0.54675182      -1.27154880
13
Frame=4 idx=004025 GeodesicLength=0.2379400761718396 rxn_smarts="[C:1]([C:2]1([C:5]#[N:6])[C:3]([H:10])([H:11])[C:4]1([H:12])[H:13])([H:7])([H:8])[H:9]>>[C:1]([C:4]([C:3]([C+:2]=[C:5]=[N-:6])([H:10])[H:11])([H:12])[H:13])([H:7])([H:8])[H:9]"
C       -1.14492875      -0.84343922       0.11708361
C       -0.20152704       0.83205638       0.44118123
C        1.21149963       0.46254524       0.64659723
C        0.67114825      -0.63614260      -0.21769581
C       -0.48057584       1.71816350      -0.63537022
N       -0.74005271       2.51126430      -1.43333250
H       -1.21188698      -1.31856997       1.09131687
H       -2.02304771      -0.22036202      -0.02679427
H       -1.23185811      -1.59718793      -0.67272286
H        1.46096638       0.16953686       1.66204214
H        1.94796709       1.08621361       0.15101656
H        0.89469341      -1.62659523       0.15797789
H        0.84760240      -0.53748292      -1.28129988
13
Frame=5 idx=004025 GeodesicLength=0.29630755547481996 rxn_smarts="[C:1]([C:2]1([C:5]#[N:6])[C:3]([H:10])([H:11])[C:4]1([H:12])[H:13])([H:7])([H:8])[H:9]>>[C:1]([C:4]([C:3]([C+:2]=[C:5]=[N-:6])([H:10])[H:11])([H:12])[H:13])([H:7])([H:8])[H:9]"
C       -1.14510339      -0.85123384       0.12868510
C       -0.20565790       0.83755159       0.41625193
C        1.20065732       0.46162412       0.64980436
C        0.67172246      -0.63458763      -0.22877617
C       -0.47146226       1.73135031      -0.65536497
N       -0.71412665       2.53255711      -1.45056981
H       -1.18659635      -1.33269301       1.10178877
H       -2.03493990      -0.23779535       0.01506993
H       -1.25420730      -1.60010445      -0.66279727
H        1.42262571       0.16211278       1.66976846
H        1.94907598       1.08411820       0.17077849
H        0.91459944      -1.62459764       0.13639301
H        0.85341286      -0.52830219      -1.29103182
13
Frame=6 idx=004025 GeodesicLength=0.35437951934027934 rxn_smarts="[C:1]([C:2]1([C:5]#[N:6])[C:3]([H:10])([H:11])[C:4]1([H:12])[H:13])([H:7])([H:8])[H:9]>>[C:1]([C:4]([C:3]([C+:2]=[C:5]=[N-:6])([H:10])[H:11])([H:12])[H:13])([H:7])([H:8])[H:9]"
C       -1.14512284      -0.85904024       0.14023767
C       -0.21002195       0.84265250       0.39069096
C        1.18905293       0.46066609       0.65286612
C        0.67227901      -0.63319443      -0.23998358
C       -0.46164858       1.74497797      -0.67532060
N       -0.68778629       2.55372045      -1.46780316
H       -1.16102179      -1.34722275       1.11130669
H       -2.04557646      -0.25528325       0.05858801
H       -1.27708628      -1.60271425      -0.65244437
H        1.38341447       0.15496595       1.67665644
H        1.94931386       1.08182082       0.19091657
H        0.93454641      -1.62212913       0.11501536
H        0.85965751      -0.51921971      -1.30072612
13
Frame=7 idx=004025 GeodesicLength=0.41216401457816165 rxn_smarts="[C:1]([C:2]1([C:5]#[N:6])[C:3]([H:10])([H:11])[C:4]1([H:12])[H:13])([H:7])([H:8])[H:9]>>[C:1]([C:4]([C:3]([C+:2]=[C:5]=[N-:6])([H:10])[H:11])([H:12])[H:13])([H:7])([H:8])[H:9]"
C       -1.14500635      -0.86686292       0.15171708
C       -0.21461931       0.84732910       0.36449483
C        1.17667810       0.45968878       0.65573686
C        0.67282836      -0.63200719      -0.25128063
C       -0.45110278       1.75905405      -0.69517680
N       -0.66112893       2.57480781      -1.48494271
H       -1.13527412      -1.36219722       1.11982359
H       -2.05481198      -0.27278275       0.10364041
H       -1.30050490      -1.60499094      -0.64165857
H        1.34341999       0.14813995       1.68266274
H        1.94862853       1.07934378       0.21134023
H        0.95453793      -1.61922087       0.09399189
H        0.86635546      -0.51030159      -1.31034892
13
Frame=8 idx=004025 GeodesicLength=0.4697355851070703 rxn_smarts="[C:1]([C:2]1([C:5]#[N:6])[C:3]([H:10])([H:11])[C:4]1([H:12])[H:13])([H:7])([H:8])[H:9]>>[C:1]([C:4]([C:3]([C+:2]=[C:5]=[N-:6])([H:10])[H:11])([H:12])[H:13])([H:7])([H:8])[H:9]"
C       -1.14477651      -0.87470948       0.16312181
C       -0.21946373       0.85155627       0.33762069
C        1.16349573       0.45870663       0.65839120
C        0.67337124      -0.63103631      -0.26266186
C       -0.43983208       1.77355455      -0.71490745
N       -0.63410509       2.59579683      -1.50200971
H       -1.10934397      -1.37772961       1.12726498
H       -2.06253391      -0.29026420       0.15033058
H       -1.32454837      -1.60683286      -0.63046556
H        1.30263212       0.14168251       1.68777716
H        1.94696296       1.07670288       0.23205253
H        0.97461885      -1.61585990       0.07336914
H        0.87352277      -0.50156731      -1.31988350
13
Frame=9 idx=004025 GeodesicLength=0.5271497517427164 rxn_smarts="[C:1]([C:2]1([C:5]#[N:6])[C:3]([H:10])([H:11])[C:4]1([H:12])[H:13])([H:7])([H:8])[H:9]>>[C:1]([C:4]([C:3]([C+:2]=[C:5]=[N-:6])([H:10])[H:11])([H:12])[H:13])([H:7])([H:8])[H:9]"
C       -1.14445040      -0.88260115       0.17446091
C       -0.22458273       0.85531813       0.31002599
C        1.14945795       0.45773308       0.66079081
C        0.67388905      -0.63028895      -0.27412864
C       -0.42786276       1.78847275      -0.73444864
N       -0.60661665       2.61670165      -1.51898903
H       -1.08324241      -1.39388077       1.13356742
H       -2.06854115      -0.30774783       0.19865427
H       -1.34929139      -1.60820654      -0.61880972
H        1.26103268       0.13564107       1.69197970
H        1.94425356       1.07390768       0.25302964
H        0.99481494      -1.61202259       0.05318622
H        0.88113931      -0.49302655      -1.32931892
13
Frame=10 idx=004025 GeodesicLength=0.5843929094742797 rxn_smarts="[C:1]([C:2]1([C:5]#[N:6])[C:3]([H:10])([H:11])[C:4]1([H:12])[H:13])([H:7])([H:8])[H:9]>>[C:1]([C:4]([C:3]([C+:2]=[C:5]=[N-:6])([H:10])[H:11])([H:12])[H:13])([H:7])([H:8])[H:9]"
C       -1.14405422      -0.89050167       0.18567598
C       -0.22992431       0.85858817       0.28173505
C        1.13459991       0.45676751       0.66291729
C        0.67441484      -0.62979647      -0.28563518
C       -0.41515594       1.80380580      -0.75368571
N       -0.57892616       2.63737069      -1.53586881
H       -1.05707245      -1.41067655       1.13862821
H       -2.07271188      -0.32511219       0.24850602
H       -1.37478903      -1.60899463      -0.60673449
H        1.21873301       0.13003252       1.69526447
H        1.94049420       1.07096153       0.27423195
H        1.01514304      -1.60772123       0.03356496
H        0.88924899      -0.48472348      -1.33859975
13
Frame=11 idx=004025 GeodesicLength=0.6415779962719401 rxn_smarts="[C:1]([C:2]1([C:5]#[N:6])[C:3]([H:10])([H:11])[C:4]1([H:12])[H:13])([H:7])([H:8])[H:9]>>[C:1]([C:4]([C:3]([C+:2]=[C:5]=[N-:6])([H:10])[H:11])([H:12])[H:13])([H:7])([H:8])[H:9]"
C       -1.14359366      -0.89845629       0.19678579
C       -0.23554642       0.86138630       0.25268219
C        1.11885121       0.45584357       0.66473173
C        0.67490703      -0.62956514      -0.29719377
C       -0.40177674       1.81951409      -0.77260408
N       -0.55078709       2.65789421      -1.55263152
H       -1.03082072      -1.42824605       1.14233909
H       -2.07478690      -0.34246495       0.29997293
H       -1.40115612      -1.60912643      -0.59416220
H        1.17567956       0.12494693       1.69764093
H        1.93559103       1.06789326       0.29562437
H        1.03562985      -1.60294576       0.01455137
H        0.89780898      -0.47667375      -1.34773683
13
Frame=12 idx=004025 GeodesicLength=0.6986180568688672 rxn_smarts="[C:1]([C:2]1([C:5]#[N:6])[C:3]([H:10])([H:11])[C:4]1([H:12])[H:13])([H:7])([H:8])[H:9]>>[C:1]([C:4]([C:3]([C+:2]=[C:5]=[N-:6])([H:10])[H:11])([H:12])[H:13])([H:7])([H:8])[H:9]"
C       -1.14310003      -0.90642119       0.20779328
C       -0.24137830       0.86354713       0.22284460
C        1.10220200       0.45493403       0.66616987
C        0.67543263      -0.62960900      -0.30875467
C       -0.38777128       1.83549302      -0.79108730
N       -0.52238768       2.67810000      -1.56917934
H       -1.00455421      -1.44655910       1.14470470
H       -2.07465555      -0.35953140       0.35281805
H       -1.42840788      -1.60849637      -0.58103869
H        1.13189440       0.12030632       1.69898692
H        1.92948673       1.06473452       0.31718885
H        1.05633824      -1.59761965      -0.00381732
H        0.90690092      -0.46887831      -1.35662894
13
Frame=13 idx=004025 GeodesicLength=0.755686484942884 rxn_smarts="[C:1]([C:2]1([C:5]#[N:6])[C:3]([H:10])([H:11])[C:4]1([H:12])[H:13])([H:7])([H:8])[H:9]>>[C:1]([C:4]([C:3]([C+:2]=[C:5]=[N-:6])([H:10])[H:11])([H:12])[H:13])([H:7])([H:8])[H:9]"
C       -1.14260000      -0.91437823       0.21861730
C       -0.24740278       0.86521096       0.19228495
C        1.08472553       0.45405073       0.66728465
C        0.67599181      -0.62998014      -0.32032514
C       -0.37317311       1.85183446      -0.80899799
N       -0.49394481       2.69794016      -1.58562710
H       -0.97838410      -1.46560807       1.14558494
H       -2.07212672      -0.37636228       0.40692140
H       -1.45664998      -1.60705834      -0.56736230
H        1.08754435       0.11616358       1.69946856
H        1.92222298       1.06146393       0.33892605
H        1.07729420      -1.59186344      -0.02143659
H        0.91650263      -0.46141331      -1.36533871
13
Frame=14 idx=004025 GeodesicLength=0.8127336711170808 rxn_smarts="[C:1]([C:2]1([C:5]#[N:6])[C:3]([H:10])([H:11])[C:4]1([H:12])[H:13])([H:7])([H:8])[H:9]>>[C:1]([C:4]([C:3]([C+:2]=[C:5]=[N-:6])([H:10])[H:11])([H:12])[H:13])([H:7])([H:8])[H:9]"
C       -1.14210752      -0.92231458       0.22923975
C       -0.25358854       0.86631974       0.16098769
C        1.06638730       0.45317676       0.66799416
C        0.67659332      -0.63063854      -0.33186789
C       -0.35799912       1.86841948      -0.82623799
N       -0.46545325       2.71725227      -1.60187422
H       -0.95240462      -1.48541331       1.14484287
H       -2.06695046      -0.39295131       0.46218909
H       -1.48593273      -1.60467353      -0.55298798
H        1.04255805       0.11251050       1.69900038
H        1.91374748       1.05806905       0.36071945
H        1.09847955      -1.58555276      -0.03823328
H        0.92667055      -0.45420378      -1.37377205
13
Frame=15 idx=004025 GeodesicLength=0.8696042177806597 rxn_smarts="[C:1]([C:2]1([C:5]#[N:6])[C:3]([H:10])([H:11])[C:4]1([H:12])[H:13])([H:7])([H:8])[H:9]>>[C:1]([C:4]([C:3]([C+:2]=[C:5]=[N-:6])([H:10])[H:11])([H:12])[H:13])([H:7])([H:8])[H:9]"
C       -1.14164649      -0.93016488       0.23958607
C       -0.25976737       0.86678433       0.12903290
C        1.04730330       0.45231801       0.66829589
C        0.67726451      -0.63160734      -0.34332779
C       -0.34234242       1.88511891      -0.84257190
N       -0.43723364       2.73577148      -1.61783723
H       -0.92674420      -1.50575095       1.14248050
H       -2.05908276      -0.40909587       0.51809091
H       -1.51625289      -1.60130806      -0.53787674
H        0.99720818       0.10928581       1.69750418
H        1.90407454       1.05462607       0.38262340
H        1.11987828      -1.57867367      -0.05418505
H        0.93734095      -0.44730384      -1.38181513
13
Frame=16 idx=004025 GeodesicLength=0.9265388165502235 rxn_smarts="[C:1]([C:2]1([C:5]#[N:6])[C:3]([H:10])([H:11])[C:4]1([H:12])[H:13])([H:7])([H:8])[H:9]>>[C:1]([C:4]([C:3]([C+:2]=[C:5]=[N-:6])([H:10])[H:11])([H:12])[H:13])([H:7])([H:8])[H:9]"
C       -1.14124608      -0.93790143       0.24962018
C       -0.26593576       0.86670443       0.09646977
C        1.02749963       0.45142293       0.66822172
C        0.67806289      -0.63292223      -0.35472086
C       -0.32631182       1.90199669      -0.85794809
N       -0.40946533       2.75350843      -1.63363182
H       -0.90150746      -1.52661705       1.13844158
H       -2.04835275      -0.42476263       0.57452780
H       -1.54764169      -1.59688853      -0.52193303
H        0.95148937       0.10641953       1.69513346
H        1.89323138       1.05106846       0.40460254
H        1.14156119      -1.57131230      -0.06923744
H        0.94861643      -0.44071629      -1.38954580
