9
Frame=0 idx=000208 GeodesicLength=0.0 rxn_smarts="[O:1]=[C:2]([C@@:3]1([H:7])[C:4]([H:8])([H:9])[O:5]1)[H:6]>>[O:1](/[C:2](=[C:3]1\[C:4]([H:8])([H:9])[O:5]1)[H:6])[H:7]"
O        1.84612222       0.90437398       0.24745159
C        1.17456206      -0.15939993       0.38813343
C       -0.19412560       0.23791898       0.45344169
C       -1.17816099      -0.20093830      -0.56039827
O       -1.23810108      -0.66250902       0.76506155
H        1.68150241      -1.11973365       0.47862032
H        0.77659513       1.44278445       0.38156027
H       -1.93876729       0.51612377      -0.85394684
H       -0.92962684      -0.95862026      -1.29992374
9
Frame=1 idx=000208 GeodesicLength=0.04174390920838909 rxn_smarts="[O:1]=[C:2]([C@@:3]1([H:7])[C:4]([H:8])([H:9])[O:5]1)[H:6]>>[O:1](/[C:2](=[C:3]1\[C:4]([H:8])([H:9])[O:5]1)[H:6])[H:7]"
O        1.85161523       0.90646232       0.25633757
C        1.18017485      -0.16009527       0.38973162
C       -0.18894435       0.23272784       0.44590164
C       -1.17881748      -0.20004716      -0.56163979
O       -1.23123682      -0.66450119       0.76473195
H        1.67762479      -1.12471700       0.48524145
H        0.76715911       1.44891373       0.37152722
H       -1.94140211       0.51792818      -0.84775090
H       -0.93617322      -0.95667145      -1.30408077
9
Frame=2 idx=000208 GeodesicLength=0.08348263907523586 rxn_smarts="[O:1]=[C:2]([C@@:3]1([H:7])[C:4]([H:8])([H:9])[O:5]1)[H:6]>>[O:1](/[C:2](=[C:3]1\[C:4]([H:8])([H:9])[O:5]1)[H:6])[H:7]"
O        1.85702710       0.90860974       0.26541677
C        1.18584340      -0.16079818       0.39134082
C       -0.18365785       0.22752068       0.43814936
C       -1.17946225      -0.19919516      -0.56289473
O       -1.22436565      -0.66624579       0.76444199
H        1.67373936      -1.12964097       0.49157318
H        0.75762350       1.45494676       0.36168967
H       -1.94386216       0.51974811      -0.84165684
H       -0.94288545      -0.95494518      -1.30806022
9
Frame=3 idx=000208 GeodesicLength=0.12522189933581437 rxn_smarts="[O:1]=[C:2]([C@@:3]1([H:7])[C:4]([H:8])([H:9])[O:5]1)[H:6]>>[O:1](/[C:2](=[C:3]1\[C:4]([H:8])([H:9])[O:5]1)[H:6])[H:7]"
O        1.86236484       0.91081371       0.27470759
C        1.19157396      -0.16151107       0.39293742
C       -0.17825648       0.22228814       0.43016910
C       -1.18009822      -0.19837994      -0.56416809
O       -1.21747549      -0.66774473       0.76419090
H        1.66985770      -1.13450511       0.49764768
H        0.74797466       1.46088963       0.35204310
H       -1.94615274       0.52159323      -0.83565697
H       -0.94978823      -0.95344386      -1.31187072
9
Frame=4 idx=000208 GeodesicLength=0.16696550291925205 rxn_smarts="[O:1]=[C:2]([C@@:3]1([H:7])[C:4]([H:8])([H:9])[O:5]1)[H:6]>>[O:1](/[C:2](=[C:3]1\[C:4]([H:8])([H:9])[O:5]1)[H:6])[H:7]"
O        1.86763420       0.91307089       0.28422885
C        1.19737520      -0.16223966       0.39448363
C       -0.17272900       0.21701454       0.42194097
C       -1.18073069      -0.19759732      -0.56546420
O       -1.21054875      -0.66900734       0.76397053
H        1.66599480      -1.13930306       0.50352749
H        0.73819589       1.46674111       0.34257073
H       -1.94828294       0.52347599      -0.82973011
H       -0.95690872      -0.95215516      -1.31552788
9
Frame=5 idx=000208 GeodesicLength=0.20870852902947723 rxn_smarts="[O:1]=[C:2]([C@@:3]1([H:7])[C:4]([H:8])([H:9])[O:5]1)[H:6]>>[O:1](/[C:2](=[C:3]1\[C:4]([H:8])([H:9])[O:5]1)[H:6])[H:7]"
O        1.87282820       0.91536948       0.29393992
C        1.20324197      -0.16298101       0.39601179
C       -0.16707701       0.21170141       0.41346495
C       -1.18135202      -0.19685016      -0.56678394
O       -1.20359643      -0.67000607       0.76378992
H        1.66215207      -1.14403921       0.50916571
H        0.72827163       1.47250804       0.33332604
H       -1.95023447       0.52539692      -0.82390540
H       -0.96423394      -0.95109940      -1.31900900
9
Frame=6 idx=000208 GeodesicLength=0.2504566041100461 rxn_smarts="[O:1]=[C:2]([C@@:3]1([H:7])[C:4]([H:8])([H:9])[O:5]1)[H:6]>>[O:1](/[C:2](=[C:3]1\[C:4]([H:8])([H:9])[O:5]1)[H:6])[H:7]"
O        1.87795090       0.91770544       0.30384336
C        1.20918002      -0.16373846       0.39750068
C       -0.16129113       0.20633713       0.40472305
C       -1.18196417      -0.19613660      -0.56813159
O       -1.19660407      -0.67074362       0.76364471
H        1.65833818      -1.14871118       0.51460307
H        0.71818292       1.47819277       0.32431146
H       -1.95200791       0.52736731      -0.81817246
H       -0.97178474      -0.95027279      -1.32232230
9
Frame=7 idx=000208 GeodesicLength=0.2922048700529101 rxn_smarts="[O:1]=[C:2]([C@@:3]1([H:7])[C:4]([H:8])([H:9])[O:5]1)[H:6]>>[O:1](/[C:2](=[C:3]1\[C:4]([H:8])([H:9])[O:5]1)[H:6])[H:7]"
O        1.88299630       0.92006530       0.31386762
C        1.21518315      -0.16450991       0.39898864
C       -0.15537320       0.20092174       0.39571850
C       -1.18255896      -0.19545918      -0.56950958
O       -1.18958173      -0.67119594       0.76354310
H        1.65455530      -1.15332429       0.51980637
H        0.70790860       1.48380366       0.31559870
H       -1.95358318       0.52939153      -0.81256266
H       -0.97954627      -0.94969290      -1.32545069
9
Frame=8 idx=000208 GeodesicLength=0.3339440634901879 rxn_smarts="[O:1]=[C:2]([C@@:3]1([H:7])[C:4]([H:8])([H:9])[O:5]1)[H:6]>>[O:1](/[C:2](=[C:3]1\[C:4]([H:8])([H:9])[O:5]1)[H:6])[H:7]"
O        1.88796158       0.92243264       0.32393475
C        1.22124050      -0.16529219       0.40051502
C       -0.14932673       0.19545269       0.38645313
C       -1.18312437      -0.19481927      -0.57091818
O       -1.18254203      -0.67133805       0.76349079
H        1.65080242      -1.15787909       0.52474249
H        0.69742065       1.48934261       0.30725918
H       -1.95493394       0.53147147      -0.80710466
H       -0.98749808      -0.94937080      -1.32837252
9
Frame=9 idx=000208 GeodesicLength=0.3756830678972428 rxn_smarts="[O:1]=[C:2]([C@@:3]1([H:7])[C:4]([H:8])([H:9])[O:5]1)[H:6]>>[O:1](/[C:2](=[C:3]1\[C:4]([H:8])([H:9])[O:5]1)[H:6])[H:7]"
O        1.89285804       0.92480309       0.33404452
C        1.22735931      -0.16608927       0.40205846
C       -0.14314046       0.18991921       0.37690878
C       -1.18366329      -0.19421535      -0.57236438
O       -1.17547031      -0.67116626       0.76348415
H        1.64709188      -1.16237624       0.52944930
H        0.68669309       1.49481571       0.29930906
H       -1.95606303       0.53361953      -0.80179691
H       -0.99566522      -0.94931043      -1.33109299
9
Frame=10 idx=000208 GeodesicLength=0.41741765346086074 rxn_smarts="[O:1]=[C:2]([C@@:3]1([H:7])[C:4]([H:8])([H:9])[O:5]1)[H:6]>>[O:1](/[C:2](=[C:3]1\[C:4]([H:8])([H:9])[O:5]1)[H:6])[H:7]"
O        1.89768779       0.92716088       0.34410718
C        1.23352671      -0.16689799       0.40367430
C       -0.13681906       0.18432163       0.36709447
C       -1.18416261      -0.19364953      -0.57384946
O       -1.16838034      -0.67065233       0.76353301
H        1.64342209      -1.16682333       0.53388108
H        0.67569080       1.50022872       0.29182644
H       -1.95694354       0.53583966      -0.79667657
H       -1.00402184      -0.94952770      -1.33359045
9
Frame=11 idx=000208 GeodesicLength=0.45914963300517303 rxn_smarts="[O:1]=[C:2]([C@@:3]1([H:7])[C:4]([H:8])([H:9])[O:5]1)[H:6]>>[O:1](/[C:2](=[C:3]1\[C:4]([H:8])([H:9])[O:5]1)[H:6])[H:7]"
O        1.90246467       0.92950123       0.35415455
C        1.23974910      -0.16772259       0.40533163
C       -0.13034889       0.17864923       0.35698345
C       -1.18462436      -0.19311884      -0.57537933
O       -1.16125129      -0.66978863       0.76363234
H        1.63980269      -1.17121752       0.53807604
H        0.66438564       1.50557870       0.28480236
H       -1.95758266       0.53813809      -0.79173207
H       -1.01259490      -0.95001966      -1.33586897
9
Frame=12 idx=000208 GeodesicLength=0.5008775325943674 rxn_smarts="[O:1]=[C:2]([C@@:3]1([H:7])[C:4]([H:8])([H:9])[O:5]1)[H:6]>>[O:1](/[C:2](=[C:3]1\[C:4]([H:8])([H:9])[O:5]1)[H:6])[H:7]"
O        1.90719505       0.93180977       0.36409765
C        1.24601413      -0.16856126       0.40708010
C       -0.12373311       0.17290068       0.34658484
C       -1.18503578      -0.19262361      -0.57695678
O       -1.15409484      -0.66854751       0.76378926
H        1.63623520      -1.17556677       0.54199647
H        0.65273579       1.51086943       0.27831575
H       -1.95795386       0.54052261      -0.78700132
H       -1.02136258      -0.95080335      -1.33790597
9
Frame=13 idx=000208 GeodesicLength=0.5426013668158689 rxn_smarts="[O:1]=[C:2]([C@@:3]1([H:7])[C:4]([H:8])([H:9])[O:5]1)[H:6]>>[O:1](/[C:2](=[C:3]1\[C:4]([H:8])([H:9])[O:5]1)[H:6])[H:7]"
O        1.91189193       0.93408135       0.37394090
C        1.25232879      -0.16941960       0.40886504
C       -0.11695613       0.16706068       0.33586783
C       -1.18539586      -0.19216193      -0.57858887
O       -1.14689175      -0.66691564       0.76399668
H        1.63273071      -1.17986035       0.54569855
H        0.64070276       1.51609409       0.27240332
H       -1.95804809       0.54300472      -0.78248655
H       -1.03036237      -0.95188332      -1.33969691
9
Frame=14 idx=000208 GeodesicLength=0.5843265398166999 rxn_smarts="[O:1]=[C:2]([C@@:3]1([H:7])[C:4]([H:8])([H:9])[O:5]1)[H:6]>>[O:1](/[C:2](=[C:3]1\[C:4]([H:8])([H:9])[O:5]1)[H:6])[H:7]"
O        1.91656450       0.93632053       0.38380486
C        1.25870209      -0.17030040       0.41065107
C       -0.11000145       0.16112502       0.32480181
C       -1.18570664      -0.19173456      -0.58027919
O       -1.13961983      -0.66485990       0.76426230
H        1.62930459      -1.18410375       0.54915575
H        0.62825736       1.52124555       0.26701696
H       -1.95786440       0.54559192      -0.77819265
H       -1.03963620      -0.95328441      -1.34122091
9
Frame=15 idx=000208 GeodesicLength=0.6260516099492639 rxn_smarts="[O:1]=[C:2]([C@@:3]1([H:7])[C:4]([H:8])([H:9])[O:5]1)[H:6]>>[O:1](/[C:2](=[C:3]1\[C:4]([H:8])([H:9])[O:5]1)[H:6])[H:7]"
O        1.92122240       0.93850851       0.39355510
C        1.26512038      -0.17120421       0.41247822
C       -0.10287242       0.15509074       0.31339689
C       -1.18595223      -0.19133926      -0.58203290
O       -1.13228639      -0.66235718       0.76458688
H        1.62595648      -1.18829981       0.55236803
H        0.61534686       1.52631998       0.26226805
H       -1.95737534       0.54829226      -0.77415844
H       -1.04915974      -0.95501102      -1.34246182
9
Frame=16 idx=000208 GeodesicLength=0.6677700031248345 rxn_smarts="[O:1]=[C:2]([C@@:3]1([H:7])[C:4]([H:8])([H:9])[O:5]1)[H:6]>>[O:1](/[C:2](=[C:3]1\[C:4]([H:8])([H:9])[O:5]1)[H:6])[H:7]"
O        1.92587994       0.94062252       0.40301170
C        1.27156127      -0.17213030       0.41441297
C       -0.09557762       0.14895704       0.30167705
C       -1.18611140      -0.19097207      -0.58385402
O       -1.12490383      -0.65938679       0.76496773
H        1.62268196      -1.19245335       0.55533205
H        0.60190976       1.53130962       0.25828433
H       -1.95654952       0.55111195      -0.77042764
H       -1.05889056      -0.95705861      -1.34340418
