18
Frame=0 idx=003269 GeodesicLength=0.0 rxn_smarts="[C:1]([C:2]([C:3]([C:4]([C:5]([O:6][H:18])([H:16])[H:17])([H:14])[H:15])([H:12])[H:13])([H:10])[H:11])([H:7])([H:8])[H:9]>>[C:1]([C:2]([C:3]([C:4](=[C:5]([H:16])[H:17])[H:15])([H:12])[H:13])([H:10])[H:11])([H:7])([H:8])[H:9].[O:6]([H:14])[H:18]"
C       -2.70564142       0.27880280      -0.19504879
C       -1.41500446      -0.38030199       0.27129287
C       -0.20937752      -0.01568183      -0.58952269
C        1.07196280      -0.66728949      -0.11716478
C        2.32622657      -0.08611061      -0.38755860
O        2.59948207       0.50948032       1.37516780
H       -2.95051852      -0.01056770      -1.22020511
H       -3.54884837      -0.00063204       0.43922385
H       -2.62136052       1.36854564      -0.17257761
H       -1.53672946      -1.46871211       0.27014543
H       -1.20732325      -0.10227054       1.30941916
H       -0.42705844      -0.28841987      -1.63053056
H       -0.08613287       1.07466028      -0.58670547
H        1.53603660      -0.10492735       1.08719796
H        1.05593082      -1.75001456      -0.02151488
H        2.39605429       0.86816426      -0.90030918
H        3.22540545      -0.68653506      -0.42292938
H        2.49689620       1.46180989       1.49161992
18
Frame=1 idx=003269 GeodesicLength=0.05237418966614874 rxn_smarts="[C:1]([C:2]([C:3]([C:4]([C:5]([O:6][H:18])([H:16])[H:17])([H:14])[H:15])([H:12])[H:13])([H:10])[H:11])([H:7])([H:8])[H:9]>>[C:1]([C:2]([C:3]([C:4](=[C:5]([H:16])[H:17])[H:15])([H:12])[H:13])([H:10])[H:11])([H:7])([H:8])[H:9].[O:6]([H:14])[H:18]"
C       -2.70795112       0.27467191      -0.19943937
C       -1.41462351      -0.37461719       0.27314508
C       -0.21150418      -0.01564375      -0.59379267
C        1.07050338      -0.66148479      -0.11726476
C        2.32335802      -0.07516953      -0.38641262
O        2.60468131       0.49419329       1.39453985
H       -2.95341472      -0.02894095      -1.22033209
H       -3.54917553       0.00090804       0.43989475
H       -2.62711467       1.36485499      -0.19130207
H       -1.53302636      -1.46330679       0.28524301
H       -1.20573009      -0.08315920       1.30737701
H       -0.42826617      -0.30059940      -1.63158699
H       -0.09122837       1.07487059      -0.60247474
H        1.52643747      -0.11193246       1.10536610
H        1.05699521      -1.74503614      -0.02825427
H        2.38732629       0.88395927      -0.89143749
H        3.21631734      -0.68300539      -0.45113366
H        2.53641570       1.44943748       1.50786493
18
Frame=2 idx=003269 GeodesicLength=0.10467248826984585 rxn_smarts="[C:1]([C:2]([C:3]([C:4]([C:5]([O:6][H:18])([H:16])[H:17])([H:14])[H:15])([H:12])[H:13])([H:10])[H:11])([H:7])([H:8])[H:9]>>[C:1]([C:2]([C:3]([C:4](=[C:5]([H:16])[H:17])[H:15])([H:12])[H:13])([H:10])[H:11])([H:7])([H:8])[H:9].[O:6]([H:14])[H:18]"
C       -2.71025208       0.27046917      -0.20392187
C       -1.41427947      -0.36884759       0.27493844
C       -0.21360068      -0.01564517      -0.59799343
C        1.06906240      -0.65551214      -0.11705544
C        2.32049420      -0.06409973      -0.38512555
O        2.60971424       0.47888302       1.41377734
H       -2.95613957      -0.04738251      -1.22037356
H       -3.54955754       0.00245280       0.44032750
H       -2.63291781       1.36089745      -0.21015599
H       -1.52929924      -1.45765063       0.30035155
H       -1.20431876      -0.06392179       1.30510262
H       -0.42928130      -0.31292536      -1.63242168
H       -0.09635563       1.07491693      -0.61831374
H        1.51657612      -0.11893546       1.12377086
H        1.05815229      -1.73983109      -0.03446445
H        2.37838060       0.89980485      -0.88238964
H        3.20667088      -0.67853591      -0.47979654
H        2.57695133       1.43586317       1.52374356
18
Frame=3 idx=003269 GeodesicLength=0.15684426850100835 rxn_smarts="[C:1]([C:2]([C:3]([C:4]([C:5]([O:6][H:18])([H:16])[H:17])([H:14])[H:15])([H:12])[H:13])([H:10])[H:11])([H:7])([H:8])[H:9]>>[C:1]([C:2]([C:3]([C:4](=[C:5]([H:16])[H:17])[H:15])([H:12])[H:13])([H:10])[H:11])([H:7])([H:8])[H:9].[O:6]([H:14])[H:18]"
C       -2.71250262       0.26624773      -0.20844509
C       -1.41396313      -0.36306179       0.27664279
C       -0.21563852      -0.01570279      -0.60210839
C        1.06765646      -0.64941602      -0.11653557
C        2.31766838      -0.05297898      -0.38369997
O        2.61445231       0.46381346       1.43282354
H       -2.95865063      -0.06566250      -1.22033393
H       -3.54997333       0.00398365       0.44051925
H       -2.63868110       1.35672426      -0.22890772
H       -1.52558807      -1.45180910       0.31529552
H       -1.20307335      -0.04477498       1.30260669
H       -0.43006279      -0.32533597      -1.63303737
H       -0.10146523       1.07477784      -0.63412453
H        1.50646259      -0.12597264       1.14241383
H        1.05940500      -1.73444408      -0.04011013
H        2.36926989       0.91555247      -0.87329836
H        3.19648652      -0.67318463      -0.50872013
H        2.61819760       1.42124408       1.53901956
18
Frame=4 idx=003269 GeodesicLength=0.20883673186850665 rxn_smarts="[C:1]([C:2]([C:3]([C:4]([C:5]([O:6][H:18])([H:16])[H:17])([H:14])[H:15])([H:12])[H:13])([H:10])[H:11])([H:7])([H:8])[H:9]>>[C:1]([C:2]([C:3]([C:4](=[C:5]([H:16])[H:17])[H:15])([H:12])[H:13])([H:10])[H:11])([H:7])([H:8])[H:9].[O:6]([H:14])[H:18]"
C       -2.71465557       0.26207061      -0.21295020
C       -1.41366137      -0.35734002       0.27822822
C       -0.21758489      -0.01583162      -0.60611727
C        1.06630554      -0.64325153      -0.11571154
C        2.31492120      -0.04190160      -0.38214570
O        2.61875177       0.44929763       1.45162439
H       -2.96090521      -0.08352055      -1.22022675
H       -3.55039705       0.00547874       0.44047279
H       -2.64430234       1.35240706      -0.24729434
H       -1.52193670      -1.44586742       0.32987795
H       -1.20196909      -0.02596702       1.29991416
H       -0.43056882      -0.33775056      -1.63344183
H       -0.10649748       1.07443776      -0.64978553
H        1.49611749      -0.13310777       1.16129302
H        1.06075374      -1.72893158      -0.04517059
H        2.36006124       0.93102798      -0.86433307
H        3.18579910      -0.66705668      -0.53768432
H        2.65976844       1.40580657       1.55345061
18
Frame=5 idx=003269 GeodesicLength=0.26060911825260785 rxn_smarts="[C:1]([C:2]([C:3]([C:4]([C:5]([O:6][H:18])([H:16])[H:17])([H:14])[H:15])([H:12])[H:13])([H:10])[H:11])([H:7])([H:8])[H:9]>>[C:1]([C:2]([C:3]([C:4](=[C:5]([H:16])[H:17])[H:15])([H:12])[H:13])([H:10])[H:11])([H:7])([H:8])[H:9].[O:6]([H:14])[H:18]"
C       -2.71666030       0.25800232      -0.21737995
C       -1.41335617      -0.35175816       0.27967246
C       -0.21940759      -0.01604796      -0.61000462
C        1.06502780      -0.63707899      -0.11460121
C        2.31228711      -0.03096384      -0.38048400
O        2.62246580       0.43564251       1.47014086
H       -2.96286287      -0.10071232      -1.22007170
H       -3.55079368       0.00692304       0.44020248
H       -2.64968045       1.34802826      -0.26506994
H       -1.51838058      -1.43991353       0.34392389
H       -1.20097199      -0.00772569       1.29706125
H       -0.43076373      -0.35009512      -1.63365047
H       -0.11139417       1.07388340      -0.66518434
H        1.48555222      -0.14041982       1.18040062
H        1.06219716      -1.72335565      -0.04964159
H        2.35081492       0.94606246      -0.85567354
H        3.17466019      -0.66026130      -0.56649105
H        2.70126632       1.38979038       1.56685085
18
Frame=6 idx=003269 GeodesicLength=0.3121314139511095 rxn_smarts="[C:1]([C:2]([C:3]([C:4]([C:5]([O:6][H:18])([H:16])[H:17])([H:14])[H:15])([H:12])[H:13])([H:10])[H:11])([H:7])([H:8])[H:9]>>[C:1]([C:2]([C:3]([C:4](=[C:5]([H:16])[H:17])[H:15])([H:12])[H:13])([H:10])[H:11])([H:7])([H:8])[H:9].[O:6]([H:14])[H:18]"
C       -2.71847780       0.25412028      -0.22166524
C       -1.41304098      -0.34642176       0.28094731
C       -0.22106727      -0.01635803      -0.61374223
C        1.06385101      -0.63096944      -0.11321987
C        2.30983024      -0.02028848      -0.37874367
O        2.62543861       0.42323535       1.48833382
H       -2.96448872      -0.11692886      -1.21990912
H       -3.55115550       0.00827702       0.43971747
H       -2.65471122       1.34370390      -0.28191550
H       -1.51498126      -1.43408405       0.35719486
H       -1.20006467       0.00964111       1.29410671
H       -0.43059629      -0.36225172      -1.63368517
H       -0.11608122       1.07312672      -0.68015286
H        1.47480200      -0.14800409       1.19972838
H        1.06373031      -1.71779778      -0.05351600
H        2.34164127       0.96044840      -0.84756027
H        3.16314488      -0.65301424      -0.59490169
H        2.74222661       1.37356570       1.57898306
18
Frame=7 idx=003269 GeodesicLength=0.36333070101976706 rxn_smarts="[C:1]([C:2]([C:3]([C:4]([C:5]([O:6][H:18])([H:16])[H:17])([H:14])[H:15])([H:12])[H:13])([H:10])[H:11])([H:7])([H:8])[H:9]>>[C:1]([C:2]([C:3]([C:4](=[C:5]([H:16])[H:17])[H:15])([H:12])[H:13])([H:10])[H:11])([H:7])([H:8])[H:9].[O:6]([H:14])[H:18]"
C       -2.72004016       0.25048554      -0.22575551
C       -1.41267188      -0.34138868       0.28203913
C       -0.22254292      -0.01677831      -0.61732363
C        1.06278578      -0.62497806      -0.11160824
C        2.30755779      -0.00996617      -0.37695750
O        2.62753284       0.41234972       1.50618103
H       -2.96575608      -0.13197041      -1.21975579
H       -3.55140000       0.00954706       0.43904985
H       -2.65928329       1.33951149      -0.29764028
H       -1.51173869      -1.42844421       0.36956168
H       -1.19916075       0.02595479       1.29108826
H       -0.43007294      -0.37415691      -1.63356297
H       -0.12051590       1.07214466      -0.69460587
H        1.46388306      -0.15598234       1.21924542
H        1.06534679      -1.71229818      -0.05682885
H        2.33256363       0.97402316      -0.84016347
H        3.15130068      -0.64543248      -0.62274019
H        2.78221204       1.35737934       1.58977694
18
Frame=8 idx=003269 GeodesicLength=0.4142852124967827 rxn_smarts="[C:1]([C:2]([C:3]([C:4]([C:5]([O:6][H:18])([H:16])[H:17])([H:14])[H:15])([H:12])[H:13])([H:10])[H:11])([H:7])([H:8])[H:9]>>[C:1]([C:2]([C:3]([C:4](=[C:5]([H:16])[H:17])[H:15])([H:12])[H:13])([H:10])[H:11])([H:7])([H:8])[H:9].[O:6]([H:14])[H:18]"
C       -2.72137485       0.24713428      -0.22962413
C       -1.41227845      -0.33672711       0.28294482
C       -0.22381284      -0.01729754      -0.62072860
C        1.06185669      -0.61914450      -0.10977338
C        2.30554160      -0.00006416      -0.37516432
O        2.62868305       0.40322039       1.52371225
H       -2.96667684      -0.14569337      -1.21967447
H       -3.55159512       0.01068233       0.43820194
H       -2.66339673       1.33555418      -0.31208015
H       -1.50871626      -1.42312069       0.38090746
H       -1.19830141       0.04105443       1.28807544
H       -0.42914976      -0.38573592      -1.63331108
H       -0.12465689       1.07099267      -0.70843271
H        1.45280971      -0.16440400       1.23895322
H        1.06704493      -1.70692829      -0.05958624
H        2.32369655       0.98670820      -0.83363972
H        3.13921695      -0.63771906      -0.64993043
H        2.82110966       1.34148813       1.59915009
18
Frame=9 idx=003269 GeodesicLength=0.4649302491936017 rxn_smarts="[C:1]([C:2]([C:3]([C:4]([C:5]([O:6][H:18])([H:16])[H:17])([H:14])[H:15])([H:12])[H:13])([H:10])[H:11])([H:7])([H:8])[H:9]>>[C:1]([C:2]([C:3]([C:4](=[C:5]([H:16])[H:17])[H:15])([H:12])[H:13])([H:10])[H:11])([H:7])([H:8])[H:9].[O:6]([H:14])[H:18]"
C       -2.72242840       0.24405420      -0.23328189
C       -1.41181754      -0.33243977       0.28366892
C       -0.22488753      -0.01789832      -0.62395173
C        1.06103768      -0.61343716      -0.10772162
C        2.30372383       0.00941326      -0.37339027
O        2.62879548       0.39594140       1.54096703
H       -2.96722108      -0.15810271      -1.21970050
H       -3.55164655       0.01165490       0.43717165
H       -2.66700807       1.33182001      -0.32524469
H       -1.50586117      -1.41811007       0.39123287
H       -1.19742253       0.05492281       1.28509398
H       -0.42785788      -0.39694941      -1.63293301
H       -0.12852218       1.06967021      -0.72161213
H        1.44156787      -0.17327592       1.25883626
H        1.06879595      -1.70162780      -0.06179399
H        2.31498615       0.99847480      -0.82804142
H        3.12680959      -0.62995062      -0.67644271
H        2.85895640       1.32584017       1.60714326
18
Frame=10 idx=003269 GeodesicLength=0.5153860765490117 rxn_smarts="[C:1]([C:2]([C:3]([C:4]([C:5]([O:6][H:18])([H:16])[H:17])([H:14])[H:15])([H:12])[H:13])([H:10])[H:11])([H:7])([H:8])[H:9]>>[C:1]([C:2]([C:3]([C:4](=[C:5]([H:16])[H:17])[H:15])([H:12])[H:13])([H:10])[H:11])([H:7])([H:8])[H:9].[O:6]([H:14])[H:18]"
C       -2.72327146       0.24121624      -0.23675015
C       -1.41130379      -0.32845062       0.28426095
C       -0.22577436      -0.01857891      -0.62703134
C        1.06035449      -0.60784972      -0.10551210
C        2.30214775       0.01853275      -0.37167955
O        2.62793783       0.39038619       1.55802544
H       -2.96748474      -0.16945487      -1.21979458
H       -3.55161928       0.01253308       0.43603308
H       -2.67021438       1.32831767      -0.33737649
H       -1.50315576      -1.41337188       0.40075872
H       -1.19652818       0.06782295       1.28215123
H       -0.42623589      -0.40789178      -1.63244471
H       -0.13212021       1.06821039      -0.73427986
H        1.43015891      -0.18269811       1.27887521
H        1.07063900      -1.69642609      -0.06358267
H        2.30646555       1.00949665      -0.82325418
H        3.11415754      -0.62207323      -0.70243851
H        2.89584701       1.31027929       1.61403953
18
Frame=11 idx=003269 GeodesicLength=0.5656748361976228 rxn_smarts="[C:1]([C:2]([C:3]([C:4]([C:5]([O:6][H:18])([H:16])[H:17])([H:14])[H:15])([H:12])[H:13])([H:10])[H:11])([H:7])([H:8])[H:9]>>[C:1]([C:2]([C:3]([C:4](=[C:5]([H:16])[H:17])[H:15])([H:12])[H:13])([H:10])[H:11])([H:7])([H:8])[H:9].[O:6]([H:14])[H:18]"
C       -2.72392093       0.23855635      -0.24007709
C       -1.41071541      -0.32465988       0.28476377
C       -0.22649988      -0.01932882      -0.63000269
C        1.05979451      -0.60231478      -0.10317116
C        2.30076855       0.02740309      -0.37005532
O        2.62613996       0.38637465       1.57496938
H       -2.96751092      -0.18005374      -1.21991753
H       -3.55148538       0.01336194       0.43482366
H       -2.67308543       1.32497178      -0.34877810
H       -1.50052141      -1.40879539       0.40973202
H       -1.19558154       0.08005443       1.27922309
H       -0.42434413      -0.41866410      -1.63183863
H       -0.13550163       1.06661216      -0.74659858
H        1.41856236      -0.19268893       1.29905524
H        1.07259217      -1.69125142      -0.06502834
H        2.29805860       1.01996737      -0.81911563
H        3.10118651      -0.61396862      -0.72808919
H        2.93206399       1.29442393       1.62010509
18
Frame=12 idx=003269 GeodesicLength=0.6158331810041209 rxn_smarts="[C:1]([C:2]([C:3]([C:4]([C:5]([O:6][H:18])([H:16])[H:17])([H:14])[H:15])([H:12])[H:13])([H:10])[H:11])([H:7])([H:8])[H:9]>>[C:1]([C:2]([C:3]([C:4](=[C:5]([H:16])[H:17])[H:15])([H:12])[H:13])([H:10])[H:11])([H:7])([H:8])[H:9].[O:6]([H:14])[H:18]"
C       -2.72440697       0.23601757      -0.24330539
C       -1.41004968      -0.32098937       0.28521406
C       -0.22708165      -0.02013069      -0.63288109
C        1.05935270      -0.59677595      -0.10070759
C        2.29956703       0.03610784      -0.36854127
O        2.62343235       0.38379270       1.59185793
H       -2.96733017      -0.19014554      -1.22004488
H       -3.55125393       0.01416092       0.43355837
H       -2.67569907       1.32172010      -0.35968969
H       -1.49790681      -1.40429864       0.41834575
H       -1.19458400       0.09185260       1.27629443
H       -0.42221478      -0.42932640      -1.63110168
H       -0.13870148       1.06488985      -0.75867256
H        1.40677059      -0.20325312       1.31936851
H        1.07467000      -1.68605104      -0.06617149
H        2.28972720       1.03004119      -0.81550158
H        3.08784602      -0.60554759      -0.75354173
H        2.96786264       1.27793559       1.62551990
18
Frame=13 idx=003269 GeodesicLength=0.6659128758782994 rxn_smarts="[C:1]([C:2]([C:3]([C:4]([C:5]([O:6][H:18])([H:16])[H:17])([H:14])[H:15])([H:12])[H:13])([H:10])[H:11])([H:7])([H:8])[H:9]>>[C:1]([C:2]([C:3]([C:4](=[C:5]([H:16])[H:17])[H:15])([H:12])[H:13])([H:10])[H:11])([H:7])([H:8])[H:9].[O:6]([H:14])[H:18]"
C       -2.72477947       0.23352831      -0.24648399
C       -1.40930454      -0.31732950       0.28565050
C       -0.22754758      -0.02098201      -0.63571383
C        1.05902853      -0.59116235      -0.09814878
C        2.29852202       0.04478135      -0.36715744
O        2.61985901       0.38246242       1.60875641
H       -2.96701453      -0.20006901      -1.22011256
H       -3.55094064       0.01498785       0.43228217
H       -2.67816089       1.31847555      -0.37044127
H       -1.49524799      -1.39975964       0.42687021
H       -1.19352533       0.10355195       1.27331623
H       -0.41990353      -0.44001706      -1.63022202
H       -0.14177416       1.06303848      -0.77070216
H        1.39475725      -0.21438629       1.33979592
H        1.07691245      -1.68076296      -0.06707118
H        2.28141264       1.03995582      -0.81221506
H        3.07409030      -0.59662653      -0.77896886
H        3.00361644       1.26031362       1.63056572
18
Frame=14 idx=003269 GeodesicLength=0.7158971416404973 rxn_smarts="[C:1]([C:2]([C:3]([C:4]([C:5]([O:6][H:18])([H:16])[H:17])([H:14])[H:15])([H:12])[H:13])([H:10])[H:11])([H:7])([H:8])[H:9]>>[C:1]([C:2]([C:3]([C:4](=[C:5]([H:16])[H:17])[H:15])([H:12])[H:13])([H:10])[H:11])([H:7])([H:8])[H:9].[O:6]([H:14])[H:18]"
C       -2.72500180       0.23105522      -0.24962601
C       -1.40842993      -0.31359510       0.28610622
C       -0.22790429      -0.02190177      -0.63853909
C        1.05881799      -0.58542843      -0.09552287
C        2.29758043       0.05351278      -0.36593125
O        2.61539582       0.38229167       1.62569576
H       -2.96655838      -0.21002549      -1.22004907
H       -3.55046150       0.01592238       0.43105292
H       -2.68046217       1.31516762      -0.38124253
H       -1.49245949      -1.39505791       0.43550191
H       -1.19233045       0.11538364       1.27025138
H       -0.41745014      -0.45085767      -1.62918326
H       -0.14474558       1.06100574      -0.78285331
H        1.38251726      -0.22612163       1.36030939
H        1.07934994      -1.67532527      -0.06777904
H        2.27302054       1.04984994      -0.80913357
H        3.05984296      -0.58703361      -0.80449169
H        3.03927879       1.24115790       1.63543411
18
Frame=15 idx=003269 GeodesicLength=0.7658361428351839 rxn_smarts="[C:1]([C:2]([C:3]([C:4]([C:5]([O:6][H:18])([H:16])[H:17])([H:14])[H:15])([H:12])[H:13])([H:10])[H:11])([H:7])([H:8])[H:9]>>[C:1]([C:2]([C:3]([C:4](=[C:5]([H:16])[H:17])[H:15])([H:12])[H:13])([H:10])[H:11])([H:7])([H:8])[H:9].[O:6]([H:14])[H:18]"
C       -2.72512580       0.22860404      -0.25272401
C       -1.40746236      -0.30982197       0.28657177
C       -0.22814841      -0.02288257      -0.64134604
C        1.05874519      -0.57957241      -0.09281745
C        2.29680059       0.06229523      -0.36489213
O        2.60997393       0.38352576       1.64265670
H       -2.96599573      -0.21995162      -1.21988064
H       -3.54990352       0.01691897       0.42984915
H       -2.68264931       1.31183327      -0.39201058
H       -1.48958661      -1.39025821       0.44417627
H       -1.19104682       0.12726836       1.26711383
H       -0.41483093      -0.46182639      -1.62798448
H       -0.14761378       1.05882433      -0.79508132
H        1.37007104      -0.23843332       1.38089818
H        1.08200451      -1.66976066      -0.06825261
H        2.26462148       1.05971211      -0.80633706
H        3.04517112      -0.57684585      -0.83004312
H        3.07497543       1.22037092       1.64010354
18
Frame=16 idx=003269 GeodesicLength=0.8157089280615903 rxn_smarts="[C:1]([C:2]([C:3]([C:4]([C:5]([O:6][H:18])([H:16])[H:17])([H:14])[H:15])([H:12])[H:13])([H:10])[H:11])([H:7])([H:8])[H:9]>>[C:1]([C:2]([C:3]([C:4](=[C:5]([H:16])[H:17])[H:15])([H:12])[H:13])([H:10])[H:11])([H:7])([H:8])[H:9].[O:6]([H:14])[H:18]"
C       -2.72511807       0.22613093      -0.25579885
C       -1.40638900      -0.30601649       0.28703872
C       -0.22829638      -0.02390836      -0.64412676
C        1.05877608      -0.57351422      -0.08999806
C        2.29611228       0.07118132      -0.36406402
O        2.60341333       0.38645817       1.65962181
H       -2.96526810      -0.22986405      -1.21964211
H       -3.54921837       0.01790088       0.42862691
H       -2.68471323       1.30840786      -0.40273963
H       -1.48659388      -1.38534402       0.45287528
H       -1.18967991       0.13918298       1.26390108
H       -0.41203743      -0.47291327      -1.62661096
H       -0.15042390       1.05648323      -0.80738393
H        1.35737759      -0.25116466       1.40156080
H        1.08485911      -1.66396278      -0.06839277
H        2.25614044       1.06955783      -0.80387360
H        3.02996721      -0.56604865      -0.85557302
H        3.11109223       1.19743330       1.64457910
