17
Frame=0 idx=010799 GeodesicLength=0.0 rxn_smarts="[C:1]([O:2][C@@:3]1([H:11])[C:4]([H:12])([H:13])[C@:5]1([C:6]([O:7][H:17])([H:15])[H:16])[H:14])([H:8])([H:9])[H:10]>>[C:1]([O:2][C:3]1([H:11])[C:4]([H:12])([H:13])[C:5]1([H:14])[H:15])([H:8])([H:9])[H:10].[C:6]([O:7][H:17])[H:16]"
C        2.13888447       0.63392215      -0.04029734
O        0.84530728       0.34040406      -0.51682291
C        0.27615946      -0.76365072       0.12014075
C       -0.40542421      -0.60187836       1.44929260
C       -1.19752907      -0.88353344       0.20804640
C       -1.97137815       0.85512584      -0.85375178
O       -1.51669640       0.65621646      -2.09029370
H        2.82869272      -0.19749758      -0.22601293
H        2.12289947       0.84583476       1.03432706
H        2.49099693       1.51392135      -0.57610505
H        0.83636557      -1.68204637      -0.04863931
H       -0.28696824      -1.37235924       2.20164260
H       -0.46638950       0.40626760       1.84420472
H       -1.61506079      -1.87283055       0.04956947
H       -2.22832708      -0.16209404      -0.17705449
H       -1.28718784       1.46240808      -0.25084013
H       -0.56434465       0.82179007      -2.12740604
17
Frame=1 idx=010799 GeodesicLength=0.055198150270012174 rxn_smarts="[C:1]([O:2][C@@:3]1([H:11])[C:4]([H:12])([H:13])[C@:5]1([C:6]([O:7][H:17])([H:15])[H:16])[H:14])([H:8])([H:9])[H:10]>>[C:1]([O:2][C:3]1([H:11])[C:4]([H:12])([H:13])[C:5]1([H:14])[H:15])([H:8])([H:9])[H:10].[C:6]([O:7][H:17])[H:16]"
C        2.13656456       0.63488333      -0.04269677
O        0.84749528       0.32890748      -0.52337289
C        0.27892578      -0.77112121       0.12050140
C       -0.40447783      -0.60374455       1.44743389
C       -1.19608887      -0.88459652       0.20475760
C       -1.96911521       0.86295013      -0.85146115
O       -1.51349518       0.67129057      -2.08973482
H        2.83158994      -0.19483830      -0.21581491
H        2.11327522       0.85817173       1.02944380
H        2.48637865       1.51123643      -0.58595519
H        0.83945471      -1.69004878      -0.04364033
H       -0.28985048      -1.37340863       2.20107935
H       -0.46157943       0.40520940       1.84056808
H       -1.61115716      -1.87538811       0.04833726
H       -2.24203773      -0.16897048      -0.17388155
H       -1.28914834       1.47480254      -0.24694733
H       -0.55673391       0.81466496      -2.11861644
17
Frame=2 idx=010799 GeodesicLength=0.11039751422886701 rxn_smarts="[C:1]([O:2][C@@:3]1([H:11])[C:4]([H:12])([H:13])[C@:5]1([C:6]([O:7][H:17])([H:15])[H:16])[H:14])([H:8])([H:9])[H:10]>>[C:1]([O:2][C:3]1([H:11])[C:4]([H:12])([H:13])[C:5]1([H:14])[H:15])([H:8])([H:9])[H:10].[C:6]([O:7][H:17])[H:16]"
C        2.13418336       0.63582716      -0.04518212
O        0.84971704       0.31733423      -0.52982917
C        0.28170933      -0.77861858       0.12093850
C       -0.40357563      -0.60558043       1.44558413
C       -1.19461542      -0.88568526       0.20143942
C       -1.96668621       0.87082946      -0.84909171
O       -1.50989246       0.68656148      -2.08900014
H        2.83436813      -0.19200673      -0.20575836
H        2.10357085       0.87036278       1.02432571
H        2.48170730       1.50848267      -0.59583249
H        0.84256847      -1.69806018      -0.03849897
H       -0.29282025      -1.37437655       2.20056082
H       -0.45686888       0.40418058       1.83688842
H       -1.60721183      -1.87797435       0.04712995
H       -2.25575046      -0.17619772      -0.17088104
H       -1.29110153       1.48737080      -0.24297156
H       -0.54930182       0.80755065      -2.10982139
17
Frame=3 idx=010799 GeodesicLength=0.16558906297301842 rxn_smarts="[C:1]([O:2][C@@:3]1([H:11])[C:4]([H:12])([H:13])[C@:5]1([C:6]([O:7][H:17])([H:15])[H:16])[H:14])([H:8])([H:9])[H:10]>>[C:1]([O:2][C:3]1([H:11])[C:4]([H:12])([H:13])[C:5]1([H:14])[H:15])([H:8])([H:9])[H:10].[C:6]([O:7][H:17])[H:16]"
C        2.13175614       0.63674353      -0.04774879
O        0.85196398       0.30572803      -0.53616072
C        0.28450141      -0.78611560       0.12145832
C       -0.40272517      -0.60736344       1.44375045
C       -1.19311516      -0.88679320       0.19810266
C       -1.96410744       0.87874657      -0.84667592
O       -1.50586853       0.70197413      -2.08810090
H        2.83702575      -0.18900496      -0.19597871
H        2.09387268       0.88227267       1.01901118
H        2.47697178       1.50571553      -0.60564833
H        0.84569831      -1.70605081      -0.03321976
H       -0.29586744      -1.37523616       2.20009547
H       -0.45227772       0.40320455       1.83317074
H       -1.60322127      -1.88058793       0.04596524
H       -2.26947902      -0.18379251      -0.16805859
H       -1.29308996       1.50011023      -0.23893770
H       -0.54203833       0.80044935      -2.10102464
17
Frame=4 idx=010799 GeodesicLength=0.2207646366155193 rxn_smarts="[C:1]([O:2][C@@:3]1([H:11])[C:4]([H:12])([H:13])[C@:5]1([C:6]([O:7][H:17])([H:15])[H:16])[H:14])([H:8])([H:9])[H:10]>>[C:1]([O:2][C:3]1([H:11])[C:4]([H:12])([H:13])[C:5]1([H:14])[H:15])([H:8])([H:9])[H:10].[C:6]([O:7][H:17])[H:16]"
C        2.12929984       0.63762013      -0.05039234
O        0.85422665       0.29413188      -0.54233807
C        0.28729239      -0.79358471       0.12206663
C       -0.40193708      -0.60906789       1.44193922
C       -1.19159556      -0.88791398       0.19475772
C       -1.96139364       0.88668003      -0.84424364
O       -1.50141150       0.71745585      -2.08704717
H        2.83956859      -0.18584125      -0.18662416
H        2.08427526       0.89375933       1.01354841
H        2.47215393       1.50299698      -0.61531219
H        0.84883558      -1.71399083      -0.02780582
H       -0.29898522      -1.37595573       2.19969264
H       -0.44782917       0.40230949       1.82941697
H       -1.59917968      -1.88322938       0.04486293
H       -2.28324479      -0.19177634      -0.16542214
H       -1.29515308       1.51301925      -0.23487491
H       -0.53492255       0.79338719      -2.09222407
17
Frame=5 idx=010799 GeodesicLength=0.27591859468394725 rxn_smarts="[C:1]([O:2][C@@:3]1([H:11])[C:4]([H:12])([H:13])[C@:5]1([C:6]([O:7][H:17])([H:15])[H:16])[H:14])([H:8])([H:9])[H:10]>>[C:1]([O:2][C:3]1([H:11])[C:4]([H:12])([H:13])[C:5]1([H:14])[H:15])([H:8])([H:9])[H:10].[C:6]([O:7][H:17])[H:16]"
C        2.12679186       0.63846670      -0.05311500
O        0.85651249       0.28250129      -0.54840121
C        0.29008711      -0.80104841       0.12274877
C       -0.40119394      -0.61072021       1.44013661
C       -1.19004839      -0.88905210       0.19139051
C       -1.95852563       0.89466590      -0.84175840
O       -1.49652771       0.73307272      -2.08581324
H        2.84198818      -0.18252954      -0.17750504
H        2.07466591       0.90500648       1.00789818
H        2.46727708       1.50024222      -0.62494344
H        0.85197950      -1.72190225      -0.02226709
H       -0.30216433      -1.37656929       2.19932843
H       -0.44349272       0.40146316       1.82562106
H       -1.59509120      -1.88589219       0.04379986
H       -2.29702746      -0.20014645      -0.16296248
H       -1.29725749       1.52610075      -0.23074298
H       -0.52797325       0.78634125      -2.08341456
17
Frame=6 idx=010799 GeodesicLength=0.3310738568165393 rxn_smarts="[C:1]([O:2][C@@:3]1([H:11])[C:4]([H:12])([H:13])[C@:5]1([C:6]([O:7][H:17])([H:15])[H:16])[H:14])([H:8])([H:9])[H:10]>>[C:1]([O:2][C:3]1([H:11])[C:4]([H:12])([H:13])[C:5]1([H:14])[H:15])([H:8])([H:9])[H:10].[C:6]([O:7][H:17])[H:16]"
C        2.12424258       0.63928119      -0.05592064
O        0.85882283       0.27084461      -0.55434739
C        0.29288267      -0.80850365       0.12350622
C       -0.40050309      -0.61231548       1.43834495
C       -1.18848111      -0.89021066       0.18800560
C       -1.95550919       0.90270304      -0.83922750
O       -1.49120823       0.74879403      -2.08439552
H        2.84429992      -0.17907669      -0.16866110
H        2.06507091       0.91598506       1.00207257
H        2.46233901       1.49747231      -0.63453186
H        0.85513083      -1.72978448      -0.01660020
H       -0.30541077      -1.37707153       2.19900865
H       -0.43927721       0.40067637       1.82178180
H       -1.59095915      -1.88858549       0.04278274
H       -2.31084891      -0.20891865      -0.16067759
H       -1.29942106       1.53936253      -0.22654848
H       -0.52117002       0.77934749      -2.07459225
17
Frame=7 idx=010799 GeodesicLength=0.38622365975495365 rxn_smarts="[C:1]([O:2][C@@:3]1([H:11])[C:4]([H:12])([H:13])[C@:5]1([C:6]([O:7][H:17])([H:15])[H:16])[H:14])([H:8])([H:9])[H:10]>>[C:1]([O:2][C:3]1([H:11])[C:4]([H:12])([H:13])[C:5]1([H:14])[H:15])([H:8])([H:9])[H:10].[C:6]([O:7][H:17])[H:16]"
C        2.12165193       0.64006017      -0.05880961
O        0.86115510       0.25916656      -0.56017556
C        0.29567607      -0.81594454       0.12433790
C       -0.39986384      -0.61384953       1.43656247
C       -1.18689386      -0.89138798       0.18460281
C       -1.95234370       0.91079373      -0.83665310
O       -1.48544720       0.76460596      -2.08278960
H        2.84650196      -0.17549191      -0.16010125
H        2.05549913       0.92668602       0.99607994
H        2.45733454       1.49468764      -0.64407647
H        0.85828541      -1.73762970      -0.01080683
H       -0.30872255      -1.37745570       2.19873173
H       -0.43518099       0.39995241       1.81789743
H       -1.58677995      -1.89130666       0.04180944
H       -2.32471169      -0.21810783      -0.15856826
H       -1.30165367       1.55280487      -0.22229069
H       -0.51450668       0.77241650      -2.06575037
17
Frame=8 idx=010799 GeodesicLength=0.4413687573557863 rxn_smarts="[C:1]([O:2][C@@:3]1([H:11])[C:4]([H:12])([H:13])[C@:5]1([C:6]([O:7][H:17])([H:15])[H:16])[H:14])([H:8])([H:9])[H:10]>>[C:1]([O:2][C:3]1([H:11])[C:4]([H:12])([H:13])[C:5]1([H:14])[H:15])([H:8])([H:9])[H:10].[C:6]([O:7][H:17])[H:16]"
C        2.11902111       0.64080221      -0.06178235
O        0.86350878       0.24746893      -0.56588808
C        0.29846497      -0.82336833       0.12524161
C       -0.39927620      -0.61532106       1.43478729
C       -1.18528844      -0.89258377       0.18118171
C       -1.94902841       0.91894395      -0.83403416
O       -1.47924162       0.78049827      -2.08098902
H        2.84859718      -0.17178346      -0.15182323
H        2.04595286       0.93711394       0.98992566
H        2.45226434       1.49188631      -0.65358306
H        0.86144025      -1.74543473      -0.00488986
H       -0.31209768      -1.37772051       2.19849494
H       -0.43120385       0.39929284       1.81396605
H       -1.58255351      -1.89405541       0.04087920
H       -2.33862144      -0.22772780      -0.15663227
H       -1.30396185       1.56643116      -0.21796857
H       -0.50797648       0.76555744      -2.05688585
17
Frame=9 idx=010799 GeodesicLength=0.49651071822785775 rxn_smarts="[C:1]([O:2][C@@:3]1([H:11])[C:4]([H:12])([H:13])[C@:5]1([C:6]([O:7][H:17])([H:15])[H:16])[H:14])([H:8])([H:9])[H:10]>>[C:1]([O:2][C:3]1([H:11])[C:4]([H:12])([H:13])[C:5]1([H:14])[H:15])([H:8])([H:9])[H:10].[C:6]([O:7][H:17])[H:16]"
C        2.11635187       0.64150519      -0.06483932
O        0.86588329       0.23575491      -0.57148617
C        0.30124680      -0.83077145       0.12621546
C       -0.39874064      -0.61672757       1.43301763
C       -1.18366681      -0.89379741       0.17774216
C       -1.94556339       0.92715835      -0.83137160
O       -1.47258781       0.79645858      -2.07898915
H        2.85058809      -0.16796010      -0.14383046
H        2.03643755       0.94726792       0.98361631
H        2.44712837       1.48906823      -0.66305423
H        0.86459214      -1.75319561       0.00114819
H       -0.31553402      -1.37786313       2.19829587
H       -0.42734632       0.39870068       1.80998548
H       -1.57827937      -1.89683156       0.03999236
H       -2.35258429      -0.23779414      -0.15486640
H       -1.30635441       1.58024441      -0.21358237
H       -0.50157104       0.75878269      -2.04799377
17
Frame=10 idx=010799 GeodesicLength=0.5516572397230868 rxn_smarts="[C:1]([O:2][C@@:3]1([H:11])[C:4]([H:12])([H:13])[C@:5]1([C:6]([O:7][H:17])([H:15])[H:16])[H:14])([H:8])([H:9])[H:10]>>[C:1]([O:2][C:3]1([H:11])[C:4]([H:12])([H:13])[C:5]1([H:14])[H:15])([H:8])([H:9])[H:10].[C:6]([O:7][H:17])[H:16]"
C        2.11364791       0.64216784      -0.06798221
O        0.86827968       0.22402730      -0.57697244
C        0.30401981      -0.83815190       0.12725793
C       -0.39825912      -0.61806794       1.43125277
C       -1.18203179      -0.89502946       0.17428441
C       -1.94195039       0.93544421      -0.82866540
O       -1.46548309       0.81247851      -2.07678642
H        2.85248005      -0.16403138      -0.13612337
H        2.02695781       0.95715132       0.97715664
H        2.44193048       1.48623334      -0.67249702
H        0.86773976      -1.76091127       0.00730575
H       -0.31903168      -1.37788329       2.19813422
H       -0.42361122       0.39817870       1.80595422
H       -1.57395746      -1.89963731       0.03915019
H       -2.36660751      -0.24832467      -0.15326725
H       -1.30884169       1.59425007      -0.20913206
H       -0.49528154       0.75210594      -2.03906998
17
Frame=11 idx=010799 GeodesicLength=0.6067972741128768 rxn_smarts="[C:1]([O:2][C@@:3]1([H:11])[C:4]([H:12])([H:13])[C@:5]1([C:6]([O:7][H:17])([H:15])[H:16])[H:14])([H:8])([H:9])[H:10]>>[C:1]([O:2][C:3]1([H:11])[C:4]([H:12])([H:13])[C:5]1([H:14])[H:15])([H:8])([H:9])[H:10].[C:6]([O:7][H:17])[H:16]"
C        2.11090862       0.64278390      -0.07120803
O        0.87069268       0.21229172      -0.58234250
C        0.30677878      -0.84550127       0.12836753
C       -0.39783106      -0.61933289       1.42948864
C       -1.18038459      -0.89627599       0.17080724
C       -1.93818533       0.94379718      -0.82592172
O       -1.45792453       0.82852300      -2.07437522
H        2.85427307      -0.16000336      -0.12873518
H        2.01753440       0.96673225       0.97056509
H        2.43665398       1.48339204      -0.68189050
H        0.87087553      -1.76856963       0.01358215
H       -0.32258725      -1.37776699       2.19800503
H       -0.41999665       0.39773494       1.80186611
H       -1.56958576      -1.90246728       0.03835248
H       -2.38069888      -0.25933576      -0.15182597
H       -1.31142996       1.60844676      -0.20462721
H       -0.48909307       0.74555137      -2.03010794
17
Frame=12 idx=010799 GeodesicLength=0.6619478760452127 rxn_smarts="[C:1]([O:2][C@@:3]1([H:11])[C:4]([H:12])([H:13])[C@:5]1([C:6]([O:7][H:17])([H:15])[H:16])[H:14])([H:8])([H:9])[H:10]>>[C:1]([O:2][C:3]1([H:11])[C:4]([H:12])([H:13])[C:5]1([H:14])[H:15])([H:8])([H:9])[H:10].[C:6]([O:7][H:17])[H:16]"
C        2.10811564       0.64336610      -0.07453013
O        0.87313416       0.20050027      -0.58763383
C        0.30952990      -0.85284674       0.12953554
C       -0.39744792      -0.62054843       1.42771650
C       -1.17872091      -0.89754625       0.16730009
C       -1.93424580       0.95225522      -0.82309580
O       -1.44990907       0.84466095      -2.07172464
H        2.85595746      -0.15587562      -0.12148755
H        2.00805099       0.97619083       0.96377299
H        2.43133416       1.48045726      -0.69136192
H        0.87400197      -1.77620187       0.01997459
H       -0.32620655      -1.37754608       2.19789587
H       -0.41648543       0.39734279       1.79771612
H       -1.56516848      -1.90532626       0.03758315
H       -2.39484724      -0.27084592      -0.15054966
H       -1.31408534       1.62284552      -0.20001921
H       -0.48300753       0.73911822      -2.02109211
17
Frame=13 idx=010799 GeodesicLength=0.717125641683267 rxn_smarts="[C:1]([O:2][C@@:3]1([H:11])[C:4]([H:12])([H:13])[C@:5]1([C:6]([O:7][H:17])([H:15])[H:16])[H:14])([H:8])([H:9])[H:10]>>[C:1]([O:2][C:3]1([H:11])[C:4]([H:12])([H:13])[C:5]1([H:14])[H:15])([H:8])([H:9])[H:10].[C:6]([O:7][H:17])[H:16]"
C        2.10527586       0.64391101      -0.07795122
O        0.87560483       0.18866107      -0.59284428
C        0.31227066      -0.86018421       0.13076239
C       -0.39711612      -0.62170897       1.42593765
C       -1.17704569      -0.89884048       0.16376479
C       -1.93013473       0.96082129      -0.82019466
O       -1.44143234       0.86086764      -2.06883427
H        2.85754270      -0.15165301      -0.11441929
H        1.99853089       0.98549216       0.95679293
H        2.42596504       1.47744921      -0.70089470
H        0.87711993      -1.78380520       0.02648791
H       -0.32989516      -1.37721517       2.19781110
H       -0.41308421       0.39701169       1.79350250
H       -1.56070526      -1.90821903       0.03684669
H       -2.40906743      -0.28287570      -0.14942613
H       -1.31682289       1.63745621      -0.19532001
H       -0.47700608       0.73283152      -2.01202142
17
Frame=14 idx=010799 GeodesicLength=0.7723198234496657 rxn_smarts="[C:1]([O:2][C@@:3]1([H:11])[C:4]([H:12])([H:13])[C@:5]1([C:6]([O:7][H:17])([H:15])[H:16])[H:14])([H:8])([H:9])[H:10]>>[C:1]([O:2][C:3]1([H:11])[C:4]([H:12])([H:13])[C:5]1([H:14])[H:15])([H:8])([H:9])[H:10].[C:6]([O:7][H:17])[H:16]"
C        2.10238894       0.64441328      -0.08147043
O        0.87810081       0.17677880      -0.59797056
C        0.31499659      -0.86750637       0.13204683
C       -0.39683609      -0.62280642       1.42414779
C       -1.17536052      -0.90015466       0.16019895
C       -1.92584853       0.96949435      -0.81722179
O       -1.43249253       0.87711657      -2.06569922
H        2.85902774      -0.14733980      -0.10755502
H        1.98899108       0.99460738       0.94963629
H        2.42053396       1.47437631      -0.71047149
H        0.88022385      -1.79136865       0.03312483
H       -0.33365216      -1.37676210       2.19774585
H       -0.40979009       0.39674808       1.78921915
H       -1.55619406      -1.91113986       0.03614048
H       -2.42336462      -0.29544597      -0.14844488
H       -1.31964854       1.65227956      -0.19053855
H       -0.47107583       0.72670949      -2.00288823
17
Frame=15 idx=010799 GeodesicLength=0.827545658668879 rxn_smarts="[C:1]([O:2][C@@:3]1([H:11])[C:4]([H:12])([H:13])[C@:5]1([C:6]([O:7][H:17])([H:15])[H:16])[H:14])([H:8])([H:9])[H:10]>>[C:1]([O:2][C:3]1([H:11])[C:4]([H:12])([H:13])[C:5]1([H:14])[H:15])([H:8])([H:9])[H:10].[C:6]([O:7][H:17])[H:16]"
C        2.09942848       0.64488329      -0.08510402
O        0.88063039       0.16479998      -0.60304707
C        0.31771150      -0.87484006       0.13338227
C       -0.39660060      -0.62386405       1.42233703
C       -1.17366007      -0.90149781       0.15659019
C       -1.92135284       0.97831020      -0.81412851
O       -1.42307709       0.89347648      -2.06228054
H        2.86039234      -0.14292241      -0.10072821
H        1.97930955       1.00370505       0.94222310
H        2.41506484       1.47114760      -0.72021317
H        0.88331618      -1.79891868       0.03989076
H       -0.33748560      -1.37621144       2.19768694
H       -0.40658599       0.39652766       1.78485784
H       -1.55163496      -1.91409358       0.03544422
H       -2.43772623      -0.30858035      -0.14761401
H       -1.32251693       1.66732645      -0.18562243
H       -0.46521295       0.72075169      -1.99367438
17
Frame=16 idx=010799 GeodesicLength=0.8828213161202029 rxn_smarts="[C:1]([O:2][C@@:3]1([H:11])[C:4]([H:12])([H:13])[C@:5]1([C:6]([O:7][H:17])([H:15])[H:16])[H:14])([H:8])([H:9])[H:10]>>[C:1]([O:2][C:3]1([H:11])[C:4]([H:12])([H:13])[C:5]1([H:14])[H:15])([H:8])([H:9])[H:10].[C:6]([O:7][H:17])[H:16]"
C        2.09639916       0.64531934      -0.08885681
O        0.88319598       0.15272692      -0.60807357
C        0.32041342      -0.88218457       0.13477046
C       -0.39641653      -0.62487971       1.42050736
C       -1.17195003      -0.90287101       0.15294014
C       -1.91664631       0.98727675      -0.81091738
O       -1.41317990       0.90992946      -2.05857571
H        2.86164524      -0.13840025      -0.09396664
H        1.96949772       1.01276362       0.93455500
H        2.40955451       1.46777568      -0.73011403
H        0.88639804      -1.80645605       0.04679154
H       -0.34140302      -1.37556163       2.19763979
H       -0.40348142       0.39635618       1.78041656
H       -1.54702923      -1.91708502       0.03476271
H       -2.45216532      -0.32230428      -0.14692178
H       -1.32543685       1.68260837      -0.18058005
H       -0.45939546       0.71498620      -1.98437759
