11
Frame=0 idx=002673 GeodesicLength=0.0 rxn_smarts="[O:1]=[C:2]([C:3]1([H:7])[C:4]([H:8])([H:9])[C:5]1([H:10])[H:11])[H:6]>>[C:3]1([H:7])=[C:5]([H:10])[C:4]1([H:8])[H:9].[H:6][H:11].[O+:1]#[C-:2]"
O        2.78180673      -0.25047775       0.05401288
C        1.68459463      -0.30028793      -0.23943538
C        0.08488779       0.19180097       0.82893888
C       -0.74778422       0.98227293      -0.12739682
C       -0.98540560      -0.41449605       0.29502912
H        0.45248944      -1.16885677      -1.28868006
H        0.53988626       0.33118151       1.79461366
H       -1.38648925       1.78670129       0.22676754
H       -0.32719828       1.14775809      -1.12498763
H       -1.78834055      -1.08530090       0.54400292
H       -0.30844698      -1.22029543      -0.96286506
11
Frame=1 idx=002673 GeodesicLength=0.0678598799402806 rxn_smarts="[O:1]=[C:2]([C:3]1([H:7])[C:4]([H:8])([H:9])[C:5]1([H:10])[H:11])[H:6]>>[C:3]1([H:7])=[C:5]([H:10])[C:4]1([H:8])[H:9].[H:6][H:11].[O+:1]#[C-:2]"
O        2.78458367      -0.27688701       0.07370198
C        1.69607802      -0.28582208      -0.25920152
C        0.08780647       0.19385101       0.82127625
C       -0.75563731       0.98373438      -0.12702738
C       -0.98641006      -0.41664810       0.29047298
H        0.47286024      -1.17219718      -1.28971275
H        0.53780860       0.33377245       1.78927004
H       -1.39237290       1.78519786       0.23681277
H       -0.34513018       1.15426905      -1.12744467
H       -1.79303927      -1.07605134       0.55769170
H       -0.30654727      -1.22321904      -0.96583940
11
Frame=2 idx=002673 GeodesicLength=0.13528808574754486 rxn_smarts="[O:1]=[C:2]([C:3]1([H:7])[C:4]([H:8])([H:9])[C:5]1([H:10])[H:11])[H:6]>>[C:3]1([H:7])=[C:5]([H:10])[C:4]1([H:8])[H:9].[H:6][H:11].[O+:1]#[C-:2]"
O        2.78586386      -0.29893008       0.09053741
C        1.70748852      -0.27318506      -0.27754400
C        0.09034822       0.19512031       0.81405538
C       -0.76258835       0.98505672      -0.12658054
C       -0.98791363      -0.41874670       0.28574157
H        0.49348540      -1.17614792      -1.29019074
H        0.53503335       0.33509400       1.78450797
H       -1.39684131       1.78402073       0.24648866
H       -0.36146656       1.16033868      -1.12940965
H       -1.79835733      -1.06598677       0.57087531
H       -0.30505218      -1.22663391      -0.96848137
11
Frame=3 idx=002673 GeodesicLength=0.20267223061937714 rxn_smarts="[O:1]=[C:2]([C:3]1([H:7])[C:4]([H:8])([H:9])[C:5]1([H:10])[H:11])[H:6]>>[C:3]1([H:7])=[C:5]([H:10])[C:4]1([H:8])[H:9].[H:6][H:11].[O+:1]#[C-:2]"
O        2.78619807      -0.31782208       0.10535748
C        1.71894272      -0.26188492      -0.29489157
C        0.09261069       0.19580692       0.80718770
C       -0.76891287       0.98624646      -0.12609244
C       -0.98987500      -0.42081301       0.28093089
H        0.51434935      -1.18036593      -1.29046053
H        0.53174999       0.33549485       1.78024122
H       -1.40030810       1.78304032       0.25587807
H       -0.37665446       1.16605184      -1.13108232
H       -1.80416711      -1.05525489       0.58375303
H       -0.30393329      -1.23049957      -0.97082153
11
Frame=4 idx=002673 GeodesicLength=0.26999048295601813 rxn_smarts="[O:1]=[C:2]([C:3]1([H:7])[C:4]([H:8])([H:9])[C:5]1([H:10])[H:11])[H:6]>>[C:3]1([H:7])=[C:5]([H:10])[C:4]1([H:8])[H:9].[H:6][H:11].[O+:1]#[C-:2]"
O        2.78581385      -0.33433638       0.11868734
C        1.73043556      -0.25162820      -0.31147963
C        0.09464945       0.19604483       0.80056748
C       -0.77477390       0.98733852      -0.12556526
C       -0.99221446      -0.42285197       0.27606714
H        0.53545474      -1.18471377      -1.29064402
H        0.52805400       0.33520096       1.77631244
H       -1.40300552       1.78222497       0.26504425
H       -0.39099788       1.17148830      -1.13250017
H       -1.81022978      -1.04399652       0.59639788
H       -0.30318605      -1.23477074      -0.97288744
11
Frame=5 idx=002673 GeodesicLength=0.33724102301515213 rxn_smarts="[O:1]=[C:2]([C:3]1([H:7])[C:4]([H:8])([H:9])[C:5]1([H:10])[H:11])[H:6]>>[C:3]1([H:7])=[C:5]([H:10])[C:4]1([H:8])[H:9].[H:6][H:11].[O+:1]#[C-:2]"
O        2.78486981      -0.34893934       0.13082634
C        1.74197106      -0.24222336      -0.32744517
C        0.09649404       0.19590896       0.79414115
C       -0.78026329       0.98834228      -0.12500655
C       -0.99489631      -0.42486322       0.27118518
H        0.55681055      -1.18907424      -1.29082685
H        0.52399811       0.33433971       1.77263993
H       -1.40506479       1.78153473       0.27401253
H       -0.40466516       1.17668500      -1.13370687
H       -1.81642943      -1.03229668       0.60885483
H       -0.30282459      -1.23941384      -0.97467452
11
Frame=6 idx=002673 GeodesicLength=0.40446127476284927 rxn_smarts="[O:1]=[C:2]([C:3]1([H:7])[C:4]([H:8])([H:9])[C:5]1([H:10])[H:11])[H:6]>>[C:3]1([H:7])=[C:5]([H:10])[C:4]1([H:8])[H:9].[H:6][H:11].[O+:1]#[C-:2]"
O        2.78352542      -0.36188615       0.14200523
C        1.75355948      -0.23356568      -0.34288342
C        0.09816858       0.19543929       0.78787431
C       -0.78544383       0.98927159      -0.12442264
C       -0.99791125      -0.42684779       0.26630805
H        0.57841456      -1.19338766      -1.29108959
H        0.51963219       0.33298410       1.76917662
H       -1.40656384       1.78096564       0.28280571
H       -0.41777672       1.18167119      -1.13473939
H       -1.82271105      -1.02021518       0.62114794
H       -0.30289353      -1.24442935      -0.97618281
11
Frame=7 idx=002673 GeodesicLength=0.47169534780722433 rxn_smarts="[O:1]=[C:2]([C:3]1([H:7])[C:4]([H:8])([H:9])[C:5]1([H:10])[H:11])[H:6]>>[C:3]1([H:7])=[C:5]([H:10])[C:4]1([H:8])[H:9].[H:6][H:11].[O+:1]#[C-:2]"
O        2.78188366      -0.37349686       0.15239997
C        1.76524236      -0.22551425      -0.35785773
C        0.09970177       0.19468219       0.78174176
C       -0.79038038       0.99014388      -0.12382508
C       -1.00124894      -0.42881823       0.26146458
H        0.60028633      -1.19755369      -1.29151380
H        0.51501111       0.33121512       1.76588371
H       -1.40759761       1.78051649       0.29142259
H       -0.43044565       1.18648729      -1.13563549
H       -1.82903880      -1.00782869       0.63330462
H       -0.30341383      -1.24983326      -0.97738514
11
Frame=8 idx=002673 GeodesicLength=0.5389290186827742 rxn_smarts="[O:1]=[C:2]([C:3]1([H:7])[C:4]([H:8])([H:9])[C:5]1([H:10])[H:11])[H:6]>>[C:3]1([H:7])=[C:5]([H:10])[C:4]1([H:8])[H:9].[H:6][H:11].[O+:1]#[C-:2]"
O        2.78014117      -0.38339086       0.16208703
C        1.77690044      -0.21818501      -0.37243825
C        0.10105356       0.19357399       0.77571139
C       -0.79502737       0.99095268      -0.12318722
C       -1.00495269      -0.43071749       0.25662410
H        0.62243744      -1.20182758      -1.29199618
H        0.51007925       0.32892578       1.76272534
H       -1.40803372       1.78020066       0.29994576
H       -0.44264457       1.19109186      -1.13637037
H       -1.83538967      -0.99508016       0.64529048
H       -0.30456385      -1.25554388      -0.97839208
11
Frame=9 idx=002673 GeodesicLength=0.6060040868764744 rxn_smarts="[O:1]=[C:2]([C:3]1([H:7])[C:4]([H:8])([H:9])[C:5]1([H:10])[H:11])[H:6]>>[C:3]1([H:7])=[C:5]([H:10])[C:4]1([H:8])[H:9].[H:6][H:11].[O+:1]#[C-:2]"
O        2.77796142      -0.39265342       0.17121394
C        1.78868958      -0.21120231      -0.38663162
C        0.10229588       0.19230002       0.76977660
C       -0.79951251       0.99167118      -0.12253701
C       -1.00887823      -0.43259161       0.25189553
H        0.64494929      -1.20562089      -1.29287459
H        0.50491640       0.32645892       1.75965684
H       -1.40815942       1.77990121       0.30829813
H       -0.45455490       1.19547941      -1.13700168
H       -1.84162192      -0.98207721       0.65718610
H       -0.30608559      -1.26166530      -0.97898224
11
Frame=10 idx=002673 GeodesicLength=0.673129524306678 rxn_smarts="[O:1]=[C:2]([C:3]1([H:7])[C:4]([H:8])([H:9])[C:5]1([H:10])[H:11])[H:6]>>[C:3]1([H:7])=[C:5]([H:10])[C:4]1([H:8])[H:9].[H:6][H:11].[O+:1]#[C-:2]"
O        2.77572829      -0.40085766       0.17988216
C        1.80058060      -0.20467104      -0.40048084
C        0.10341968       0.19077154       0.76392027
C       -0.80382089       0.99234914      -0.12187470
C       -1.01313356      -0.43443006       0.24724532
H        0.66780420      -1.20921819      -1.29405266
H        0.49955301       0.32365289       1.75667972
H       -1.40787267       1.77972859       0.31652171
H       -0.46618799       1.19970916      -1.13754544
H       -1.84784301      -0.96884538       0.66895780
H       -0.30822767      -1.26818899      -0.97925334
11
Frame=11 idx=002673 GeodesicLength=0.7402504638158051 rxn_smarts="[O:1]=[C:2]([C:3]1([H:7])[C:4]([H:8])([H:9])[C:5]1([H:10])[H:11])[H:6]>>[C:3]1([H:7])=[C:5]([H:10])[C:4]1([H:8])[H:9].[H:6][H:11].[O+:1]#[C-:2]"
O        2.77339389      -0.40816741       0.18815091
C        1.81258097      -0.19850575      -0.41400754
C        0.10442578       0.18900798       0.75812704
C       -0.80796582       0.99296943      -0.12120049
C       -1.01769980      -0.43622329       0.24269477
H        0.69106331      -1.21253618      -1.29559891
H        0.49398070       0.32055581       1.75376701
H       -1.40718643       1.77965333       0.32462499
H       -0.47757713       1.20375012      -1.13801265
H       -1.85401484      -0.95538337       0.68063205
H       -0.31100062      -1.27512067      -0.97917718
11
Frame=12 idx=002673 GeodesicLength=0.8073613956016332 rxn_smarts="[O:1]=[C:2]([C:3]1([H:7])[C:4]([H:8])([H:9])[C:5]1([H:10])[H:11])[H:6]>>[C:3]1([H:7])=[C:5]([H:10])[C:4]1([H:8])[H:9].[H:6][H:11].[O+:1]#[C-:2]"
O        2.77097073      -0.41469570       0.19608256
C        1.82470884      -0.19264012      -0.42721991
C        0.10532043       0.18701748       0.75238653
C       -0.81196186       0.99352968      -0.12051820
C       -1.02257600      -0.43797009       0.23826394
H        0.71477462      -1.21551113      -1.29758566
H        0.48821170       0.31719638       1.75090096
H       -1.40611228       1.77967428       0.33260611
H       -0.48875957       1.20759283      -1.13841801
H       -1.86013103      -0.94170596       0.69222352
H       -0.31444558      -1.28248764      -0.97872183
11
Frame=13 idx=002673 GeodesicLength=0.8744633011233522 rxn_smarts="[O:1]=[C:2]([C:3]1([H:7])[C:4]([H:8])([H:9])[C:5]1([H:10])[H:11])[H:6]>>[C:3]1([H:7])=[C:5]([H:10])[C:4]1([H:8])[H:9].[H:6][H:11].[O+:1]#[C-:2]"
O        2.76847697      -0.42051907       0.20373441
C        1.83698159      -0.18701811      -0.44012289
C        0.10610751       0.18479924       0.74668842
C       -0.81581787       0.99402650      -0.11983215
C       -1.02776828      -0.43966810       0.23397162
H        0.73898973      -1.21808816      -1.30008289
H        0.48225579       0.31359034       1.74806548
H       -1.40464909       1.77979315       0.34046322
H       -0.49976390       1.21122506      -1.13877655
H       -1.86619482      -0.92782222       0.70374902
H       -0.31861763      -1.29031862      -0.97785768
11
Frame=14 idx=002673 GeodesicLength=0.9415571269828281 rxn_smarts="[O:1]=[C:2]([C:3]1([H:7])[C:4]([H:8])([H:9])[C:5]1([H:10])[H:11])[H:6]>>[C:3]1([H:7])=[C:5]([H:10])[C:4]1([H:8])[H:9].[H:6][H:11].[O+:1]#[C-:2]"
O        2.76592493      -0.42571460       0.21115699
C        1.84941932      -0.18158087      -0.45271369
C        0.10678956       0.18234946       0.74102313
C       -0.81954110       0.99445450      -0.11914792
C       -1.03328479      -0.44131602       0.22983744
H        0.76376764      -1.22020133      -1.30316921
H        0.47612111       0.30975151       1.74524568
H       -1.40279213       1.78001208       0.34819092
H       -0.51061627       1.21463022      -1.13910427
H       -1.87221351      -0.91373580       0.71522983
H       -0.32357477      -1.29864914      -0.97654892
11
Frame=15 idx=002673 GeodesicLength=1.0086441403392834 rxn_smarts="[O:1]=[C:2]([C:3]1([H:7])[C:4]([H:8])([H:9])[C:5]1([H:10])[H:11])[H:6]>>[C:3]1([H:7])=[C:5]([H:10])[C:4]1([H:8])[H:9].[H:6][H:11].[O+:1]#[C-:2]"
O        2.76332430      -0.43035296       0.21839662
C        1.86204362      -0.17626910      -0.46498334
C        0.10736767       0.17965990       0.73538112
C       -0.82313640       0.99480643      -0.11847217
C       -1.03913689      -0.44291283       0.22588185
H        0.78917415      -1.22177698      -1.30693073
H        0.46981417       0.30568970       1.74242713
H       -1.40053090       1.78033393       0.35578114
H       -0.52133953       1.21778762      -1.13941796
H       -1.87819856      -0.89944507       0.72669061
H       -0.32938163      -1.30752064      -0.97475428
11
Frame=16 idx=002673 GeodesicLength=1.0757254432650492 rxn_smarts="[O:1]=[C:2]([C:3]1([H:7])[C:4]([H:8])([H:9])[C:5]1([H:10])[H:11])[H:6]>>[C:3]1([H:7])=[C:5]([H:10])[C:4]1([H:8])[H:9].[H:6][H:11].[O+:1]#[C-:2]"
O        2.76068136      -0.43450192       0.22549718
C        1.87487806      -0.17102199      -0.47691665
C        0.10784158       0.17671787       0.72975262
C       -0.82660652       0.99507271      -0.11781306
C       -1.04533909      -0.44445805       0.22212668
H        0.81528218      -1.22272932      -1.31146391
H        0.46334011       0.30141169       1.73959525
H       -1.39784909       1.78076207       0.36322260
H       -0.53195399       1.22067165      -1.13973585
H       -1.88416502      -0.88494284       0.73816025
H       -0.33610959      -1.31698186      -0.97242513
