13
Frame=0 idx=008477 GeodesicLength=0.0 rxn_smarts="[N:1]([c:2]1[c:3]([O:4][H:10])[c:5]([H:11])[c:6]([H:12])[n:7]1[H:13])([H:8])[H:9]>>[H:8][H:10].[N:1](=[C:2]1\[C:3](=[O:4])[C:5]([H:11])=[C:6]([H:12])[N:7]1[H:13])\[H:9]"
N        1.74794628       0.73532535      -0.14682861
C        0.49734138       0.52549739       0.21213296
C       -0.00466252      -0.80064706       0.42807120
O        0.82406899      -1.76316229       0.35005299
C       -1.42660551      -0.74051763       0.28336759
C       -1.72467162       0.55924880      -0.00270647
N       -0.58908656       1.30131080      -0.15040216
H        2.01467326      -0.52693551      -0.97193959
H        2.36512916       0.26448401       0.50548017
H        1.67145694      -1.32934884      -0.56867608
H       -2.12603147      -1.55102302       0.40060407
H       -2.69416734       1.02706104      -0.08979741
H       -0.55539099       2.29870695      -0.24935869
13
Frame=1 idx=008477 GeodesicLength=0.08505424423204754 rxn_smarts="[N:1]([c:2]1[c:3]([O:4][H:10])[c:5]([H:11])[c:6]([H:12])[n:7]1[H:13])([H:8])[H:9]>>[H:8][H:10].[N:1](=[C:2]1\[C:3](=[O:4])[C:5]([H:11])=[C:6]([H:12])[N:7]1[H:13])\[H:9]"
N        1.74261361       0.73728475      -0.17586590
C        0.49920174       0.53447105       0.21622784
C       -0.00296546      -0.78896816       0.45963652
O        0.82623327      -1.75433716       0.40050389
C       -1.42074056      -0.74059274       0.26932444
C       -1.72515228       0.56398114       0.01399059
N       -0.59207453       1.31078124      -0.12840671
H        2.00736747      -0.55950295      -0.99366768
H        2.37344674       0.29422650       0.48314164
H        1.66070513      -1.36642393      -0.55808166
H       -2.11299731      -1.56353207       0.32919950
H       -2.69651647       1.02449346      -0.08863749
H       -0.55912134       2.30811887      -0.22736498
13
Frame=2 idx=008477 GeodesicLength=0.17011761383299887 rxn_smarts="[N:1]([c:2]1[c:3]([O:4][H:10])[c:5]([H:11])[c:6]([H:12])[n:7]1[H:13])([H:8])[H:9]>>[H:8][H:10].[N:1](=[C:2]1\[C:3](=[O:4])[C:5]([H:11])=[C:6]([H:12])[N:7]1[H:13])\[H:9]"
N        1.73644174       0.73883655      -0.20305957
C        0.50093292       0.54352442       0.22167272
C       -0.00137730      -0.77722937       0.49040465
O        0.82809000      -1.74511679       0.44756752
C       -1.41422053      -0.73989630       0.25889296
C       -1.72536071       0.56743357       0.02686786
N       -0.59500407       1.32024221      -0.10511331
H        1.99875004      -0.59186119      -1.01566473
H        2.38097600       0.32306783       0.46079123
H        1.64832952      -1.40366689      -0.54838036
H       -2.09631327      -1.57352619       0.26151341
H       -2.69823236       1.02061268      -0.09205310
H       -0.56301198       2.31757947      -0.20343927
13
Frame=3 idx=008477 GeodesicLength=0.2552013744730343 rxn_smarts="[N:1]([c:2]1[c:3]([O:4][H:10])[c:5]([H:11])[c:6]([H:12])[n:7]1[H:13])([H:8])[H:9]>>[H:8][H:10].[N:1](=[C:2]1\[C:3](=[O:4])[C:5]([H:11])=[C:6]([H:12])[N:7]1[H:13])\[H:9]"
N        1.72961131       0.74024576      -0.22783784
C        0.50247385       0.55259631       0.22831862
C        0.00009976      -0.76567282       0.51990916
O        0.82967948      -1.73584625       0.49089786
C       -1.40741097      -0.73872628       0.25164473
C       -1.72534979       0.56989186       0.03645798
N       -0.59788191       1.32940993      -0.08142078
H        1.98944085      -0.62362733      -1.03772412
H        2.38756849       0.35117727       0.43936443
H        1.63453777      -1.44099072      -0.53980624
H       -2.07646077      -1.58124788       0.19761400
H       -2.69935140       1.01606972      -0.09806195
H       -0.56695669       2.32672042      -0.17935584
13
Frame=4 idx=008477 GeodesicLength=0.34031139086217577 rxn_smarts="[N:1]([c:2]1[c:3]([O:4][H:10])[c:5]([H:11])[c:6]([H:12])[n:7]1[H:13])([H:8])[H:9]>>[H:8][H:10].[N:1](=[C:2]1\[C:3](=[O:4])[C:5]([H:11])=[C:6]([H:12])[N:7]1[H:13])\[H:9]"
N        1.72226461       0.74168993      -0.25017403
C        0.50382884       0.56165440       0.23597603
C        0.00149863      -0.75443030       0.54800696
O        0.83109983      -1.72671932       0.53065749
C       -1.40046976      -0.73731277       0.24673562
C       -1.72518099       0.57174698       0.04426387
N       -0.60075174       1.33817516      -0.05768743
H        1.97974450      -0.65475959      -1.05986056
H        2.39323997       0.37886091       0.41919141
H        1.61944512      -1.47851490      -0.53235478
H       -2.05389710      -1.58685015       0.13737863
H       -2.69989357       1.01106460      -0.10625754
H       -0.57092834       2.33539506      -0.15587569
13
Frame=5 idx=008477 GeodesicLength=0.42545078919644347 rxn_smarts="[N:1]([c:2]1[c:3]([O:4][H:10])[c:5]([H:11])[c:6]([H:12])[n:7]1[H:13])([H:8])[H:9]>>[H:8][H:10].[N:1](=[C:2]1\[C:3](=[O:4])[C:5]([H:11])=[C:6]([H:12])[N:7]1[H:13])\[H:9]"
N        1.71456103       0.74330212      -0.27014527
C        0.50498920       0.57067678       0.24434985
C        0.00281090      -0.74358686       0.57454926
O        0.83240749      -1.71784675       0.56715089
C       -1.39346026      -0.73585163       0.24310341
C       -1.72490198       0.57319068       0.05095178
N       -0.60365131       1.34646767      -0.03439241
H        1.97002499      -0.68535148      -1.08199993
H        2.39799711       0.40649576       0.40056423
H        1.60325762      -1.51641605      -0.52578997
H       -2.02915023      -1.59050439       0.08058510
H       -2.69994125       1.00589499      -0.11536511
H       -0.57494332       2.34352917      -0.13356185
13
Frame=6 idx=008477 GeodesicLength=0.5106218674323573 rxn_smarts="[N:1]([c:2]1[c:3]([O:4][H:10])[c:5]([H:11])[c:6]([H:12])[n:7]1[H:13])([H:8])[H:9]>>[H:8][H:10].[N:1](=[C:2]1\[C:3](=[O:4])[C:5]([H:11])=[C:6]([H:12])[N:7]1[H:13])\[H:9]"
N        1.70668350       0.74521674      -0.28781597
C        0.50598554       0.57965421       0.25326184
C        0.00406443      -0.73320254       0.59946149
O        0.83364817      -1.70933294       0.60049742
C       -1.38638964      -0.73442116       0.24010636
C       -1.72451955       0.57432367       0.05683165
N       -0.60657836       1.35428534      -0.01173891
H        1.96052832      -0.71541262      -1.10423738
H        2.40191566       0.43435425       0.38365194
H        1.58604440      -1.55481649      -0.52011310
H       -2.00287590      -1.59240796       0.02771745
H       -2.69949302       1.00060168      -0.12535780
H       -0.57901355       2.35115781      -0.11226497
13
Frame=7 idx=008477 GeodesicLength=0.5958182717209561 rxn_smarts="[N:1]([c:2]1[c:3]([O:4][H:10])[c:5]([H:11])[c:6]([H:12])[n:7]1[H:13])([H:8])[H:9]>>[H:8][H:10].[N:1](=[C:2]1\[C:3](=[O:4])[C:5]([H:11])=[C:6]([H:12])[N:7]1[H:13])\[H:9]"
N        1.69878351       0.74751743      -0.30335704
C        0.50684649       0.58859905       0.26252042
C        0.00528749      -0.72327135       0.62277838
O        0.83486460      -1.70119846       0.63098268
C       -1.37924264      -0.73305117       0.23734334
C       -1.72403689       0.57520379       0.06202268
N       -0.60953218       1.36164181       0.01005301
H        1.95141633      -0.74507793      -1.12663750
H        2.40507414       0.46273629       0.36849905
H        1.56784003      -1.59388878      -0.51516223
H       -1.97554213      -1.59281991      -0.02137923
H       -2.69859845       0.99527845      -0.13580277
H       -0.58316033       2.35833076      -0.09186080
13
Frame=8 idx=008477 GeodesicLength=0.6810540770511205 rxn_smarts="[N:1]([c:2]1[c:3]([O:4][H:10])[c:5]([H:11])[c:6]([H:12])[n:7]1[H:13])([H:8])[H:9]>>[H:8][H:10].[N:1](=[C:2]1\[C:3](=[O:4])[C:5]([H:11])=[C:6]([H:12])[N:7]1[H:13])\[H:9]"
N        1.69097158       0.75025877      -0.31699460
C        0.50760684       0.59753947       0.27198642
C        0.00651909      -0.71375289       0.64462532
O        0.83610921      -1.69342019       0.65894565
C       -1.37199796      -0.73175011       0.23463765
C       -1.72345644       0.57587971       0.06666621
N       -0.61250969       1.36857985       0.03088493
H        1.94271255      -0.77453921      -1.14930356
H        2.40755975       0.49191724       0.35501419
H        1.54861323      -1.63382521      -0.51072392
H       -1.94742171      -1.59197197      -0.06713038
H       -2.69730193       0.98995834      -0.14647146
H       -0.58740450       2.36512619      -0.07213646
13
Frame=9 idx=008477 GeodesicLength=0.7663053030524245 rxn_smarts="[N:1]([c:2]1[c:3]([O:4][H:10])[c:5]([H:11])[c:6]([H:12])[n:7]1[H:13])([H:8])[H:9]>>[H:8][H:10].[N:1](=[C:2]1\[C:3](=[O:4])[C:5]([H:11])=[C:6]([H:12])[N:7]1[H:13])\[H:9]"
N        1.68333254       0.75346393      -0.32892706
C        0.50828994       0.60649526       0.28155303
C        0.00778792      -0.70459784       0.66511841
O        0.83742570      -1.68594644       0.68470117
C       -1.36462578      -0.73051604       0.23184943
C       -1.72278262       0.57637993       0.07087687
N       -0.61551195       1.37513312       0.05070424
H        1.93440031      -0.80400553      -1.17231507
H        2.40942961       0.52214039       0.34308840
H        1.52834386      -1.67480726      -0.50652224
H       -1.91863903      -1.59000455      -0.11013547
H       -2.69568560       0.98468199      -0.15696297
H       -0.59176490       2.37158305      -0.05302874
13
Frame=10 idx=008477 GeodesicLength=0.8515822299895871 rxn_smarts="[N:1]([c:2]1[c:3]([O:4][H:10])[c:5]([H:11])[c:6]([H:12])[n:7]1[H:13])([H:8])[H:9]>>[H:8][H:10].[N:1](=[C:2]1\[C:3](=[O:4])[C:5]([H:11])=[C:6]([H:12])[N:7]1[H:13])\[H:9]"
N        1.67596852       0.75719834      -0.33926083
C        0.50893238       0.61549099       0.29116701
C        0.00914007      -0.69578013       0.68433366
O        0.83886562      -1.67876731       0.70839763
C       -1.35708990      -0.72933263       0.22889486
C       -1.72199131       0.57671310       0.07459340
N       -0.61852221       1.38135060       0.06953356
H        1.92644073      -0.83357627      -1.19582049
H        2.41074476       0.55359299       0.33267016
H        1.50695000      -1.71697914      -0.50244129
H       -1.88943114      -1.58712388      -0.15042780
H       -2.69375834       0.97943088      -0.16738227
H       -0.59624916       2.37778246      -0.03425761
13
Frame=11 idx=008477 GeodesicLength=0.936880124830361 rxn_smarts="[N:1]([c:2]1[c:3]([O:4][H:10])[c:5]([H:11])[c:6]([H:12])[n:7]1[H:13])([H:8])[H:9]>>[H:8][H:10].[N:1](=[C:2]1\[C:3](=[O:4])[C:5]([H:11])=[C:6]([H:12])[N:7]1[H:13])\[H:9]"
N        1.66894536       0.76150473      -0.34811452
C        0.50956255       0.62454890       0.30080283
C        0.01061566      -0.68726768       0.70236706
O        0.84048263      -1.67184662       0.73021930
C       -1.34935040      -0.72819195       0.22572080
C       -1.72106614       0.57689198       0.07785812
N       -0.62153236       1.38727626       0.08745394
H        1.91872409      -0.86339199      -1.21996180
H        2.41154013       0.58646403       0.32365635
H        1.48436244      -1.76049761      -0.49826410
H       -1.85988074      -1.58345460      -0.18834709
H       -2.69153960       0.97419541      -0.17768625
H       -0.60086361       2.38376913      -0.01570466
13
Frame=12 idx=008477 GeodesicLength=1.022199791225882 rxn_smarts="[N:1]([c:2]1[c:3]([O:4][H:10])[c:5]([H:11])[c:6]([H:12])[n:7]1[H:13])([H:8])[H:9]>>[H:8][H:10].[N:1](=[C:2]1\[C:3](=[O:4])[C:5]([H:11])=[C:6]([H:12])[N:7]1[H:13])\[H:9]"
N        1.66231441       0.76643284      -0.35558314
C        0.51020926       0.63369406       0.31046357
C        0.01225927      -0.67903176       0.71931308
O        0.84233933      -1.66514733       0.75032258
C       -1.34136126      -0.72708740       0.22229474
C       -1.71998517       0.57692415       0.08070874
N       -0.62453467       1.39295379       0.10458776
H        1.91107939      -0.89357961      -1.24490650
H        2.41183579       0.62092119       0.31593450
H        1.46049562      -1.80552046      -0.49375809
H       -1.83001223      -1.57909553      -0.22421249
H       -2.68902412       0.96895310      -0.18791469
H       -0.60561560       2.38958296       0.00274994
13
Frame=13 idx=008477 GeodesicLength=1.1075432240020633 rxn_smarts="[N:1]([c:2]1[c:3]([O:4][H:10])[c:5]([H:11])[c:6]([H:12])[n:7]1[H:13])([H:8])[H:9]>>[H:8][H:10].[N:1](=[C:2]1\[C:3](=[O:4])[C:5]([H:11])=[C:6]([H:12])[N:7]1[H:13])\[H:9]"
N        1.65613735       0.77204235      -0.36170855
C        0.51089809       0.64294992       0.32016208
C        0.01411208      -0.67105435       0.73523331
O        0.84449557      -1.65864131       0.76881706
C       -1.33307151      -0.72601472       0.21855370
C       -1.71872197       0.57681140       0.08315501
N       -0.62751959       1.39841700       0.12103281
H        1.90333343      -0.92424113      -1.27082439
H        2.41163166       0.65711889       0.30944929
H        1.43527289      -1.85220782      -0.48867507
H       -1.79983042      -1.57412410      -0.25832848
H       -2.68623011       0.96369885      -0.19798563
H       -0.61050745       2.39524503       0.02111886
13
Frame=14 idx=008477 GeodesicLength=1.1929154399157686 rxn_smarts="[N:1]([c:2]1[c:3]([O:4][H:10])[c:5]([H:11])[c:6]([H:12])[n:7]1[H:13])([H:8])[H:9]>>[H:8][H:10].[N:1](=[C:2]1\[C:3](=[O:4])[C:5]([H:11])=[C:6]([H:12])[N:7]1[H:13])\[H:9]"
N        1.65044969       0.77839681      -0.36654819
C        0.51165710       0.65234555       0.32993036
C        0.01622384      -0.66331250       0.75020312
O        0.84702843      -1.65228608       0.78581750
C       -1.32441802      -0.72497126       0.21446031
C       -1.71724577       0.57655234       0.08522860
N       -0.63048075       1.40370019       0.13693094
H        1.89522115      -0.95549034      -1.29792134
H        2.41091436       0.69520497       0.30408946
H        1.40859325      -1.90073823      -0.48271228
H       -1.76926241      -1.56858360      -0.29101969
H       -2.68312918       0.95840035      -0.20797757
H       -0.61555170       2.40078180       0.03951878
13
Frame=15 idx=008477 GeodesicLength=1.2783226518229958 rxn_smarts="[N:1]([c:2]1[c:3]([O:4][H:10])[c:5]([H:11])[c:6]([H:12])[n:7]1[H:13])([H:8])[H:9]>>[H:8][H:10].[N:1](=[C:2]1\[C:3](=[O:4])[C:5]([H:11])=[C:6]([H:12])[N:7]1[H:13])\[H:9]"
N        1.64530023       0.78557506      -0.37011481
C        0.51251390       0.66190997       0.33980523
C        0.01864581      -0.65579257       0.76426714
O        0.85001823      -1.64604695       0.80139185
C       -1.31532893      -0.72395588       0.20994753
C       -1.71551942       0.57614009       0.08693339
N       -0.63340947       1.40882842       0.15239569
H        1.88646639      -0.98741601      -1.32641598
H        2.40965351       0.73532146       0.29979699
H        1.38035325      -1.95130173      -0.47554212
H       -1.73822896      -1.56250441      -0.32257623
H       -2.67970532       0.95303533      -0.21789501
H       -0.62075922       2.40620722       0.05800633
13
Frame=16 idx=008477 GeodesicLength=1.3637715453216557 rxn_smarts="[N:1]([c:2]1[c:3]([O:4][H:10])[c:5]([H:11])[c:6]([H:12])[n:7]1[H:13])([H:8])[H:9]>>[H:8][H:10].[N:1](=[C:2]1\[C:3](=[O:4])[C:5]([H:11])=[C:6]([H:12])[N:7]1[H:13])\[H:9]"
N        1.64074643       0.79366910      -0.37239044
C        0.51349713       0.67167280       0.34982962
C        0.02143397      -0.64848740       0.77744966
O        0.85355355      -1.63989206       0.81557231
C       -1.30572085      -0.72296952       0.20492892
C       -1.71349984       0.57556291       0.08826504
N       -0.63629559       1.41381979       0.16752669
H        1.87676639      -1.02009176      -1.35654480
H        2.40780381       0.77761295       0.29654879
H        1.35043156      -2.00410711      -0.46679467
H       -1.70662611      -1.55589748      -0.35329023
H       -2.67595013       0.94758235      -0.22769792
H       -0.62614032       2.41152543       0.07659703
