12
Frame=0 idx=005558 GeodesicLength=0.0 rxn_smarts="[C:1]1([H:7])([H:8])[O:2][C@:3]1([C@@:4]1([H:10])[C:5]([H:11])([H:12])[O:6]1)[H:9]>>[C:1]1([H:7])([H:8])[O:2][C@:4]2([H:10])[C@@:3]1([H:9])[O:6][C:5]2([H:11])[H:12]"
C        1.35855233       0.61622718      -0.08809079
O        1.32553294       0.04337581       1.19300037
C        0.56596298      -0.58196554      -0.44004394
C       -0.44568004      -0.63285780       0.54980188
C       -1.46504449       0.29231817       0.02424713
O       -1.20217192      -0.47880983      -1.13504289
H        0.86414920       1.58665630      -0.19256499
H        2.35782625       0.65151740      -0.52886457
H        1.03686458      -1.47118441      -0.84128607
H       -0.71405784      -1.53094087       1.09241186
H       -1.20681604       1.34991426      -0.04587678
H       -2.47511791       0.15574935       0.41230883
12
Frame=1 idx=005558 GeodesicLength=0.0440553576921176 rxn_smarts="[C:1]1([H:7])([H:8])[O:2][C@:3]1([C@@:4]1([H:10])[C:5]([H:11])([H:12])[O:6]1)[H:9]>>[C:1]1([H:7])([H:8])[O:2][C@:4]2([H:10])[C@@:3]1([H:9])[O:6][C:5]2([H:11])[H:12]"
C        1.36317305       0.61753087      -0.09295459
O        1.31309168       0.03940228       1.18646790
C        0.56856894      -0.58025823      -0.44147212
C       -0.44702529      -0.63070523       0.55048722
C       -1.46998240       0.29281154       0.02817282
O       -1.19487082      -0.47756499      -1.12919310
H        0.87538559       1.59047246      -0.20016046
H        2.36733924       0.64528380      -0.52259149
H        1.03704485      -1.46916438      -0.84697212
H       -0.71255257      -1.52718569       1.09769998
H       -1.21915753       1.35205722      -0.03987899
H       -2.48101474       0.14732035       0.41039495
12
Frame=2 idx=005558 GeodesicLength=0.08810190607593828 rxn_smarts="[C:1]1([H:7])([H:8])[O:2][C@:3]1([C@@:4]1([H:10])[C:5]([H:11])([H:12])[O:6]1)[H:9]>>[C:1]1([H:7])([H:8])[O:2][C@:4]2([H:10])[C@@:3]1([H:9])[O:6][C:5]2([H:11])[H:12]"
C        1.36786680       0.61875668      -0.09780306
O        1.30079787       0.03567017       1.17985487
C        0.57116296      -0.57855339      -0.44291495
C       -0.44839198      -0.62853639       0.55118574
C       -1.47497682       0.29324775       0.03209838
O       -1.18761510      -0.47614915      -1.12336256
H        0.88683586       1.59422272      -0.20774196
H        2.37675450       0.63898296      -0.51623890
H        1.03718363      -1.46715297      -0.85263630
H       -0.71105054      -1.52340394       1.10297132
H       -1.23168675       1.35411822      -0.03381674
H       -2.48688043       0.13879735       0.40840416
12
Frame=3 idx=005558 GeodesicLength=0.13213419569485357 rxn_smarts="[C:1]1([H:7])([H:8])[O:2][C@:3]1([C@@:4]1([H:10])[C:5]([H:11])([H:12])[O:6]1)[H:9]>>[C:1]1([H:7])([H:8])[O:2][C@:4]2([H:10])[C@@:3]1([H:9])[O:6][C:5]2([H:11])[H:12]"
C        1.37263298       0.61990574      -0.10263588
O        1.28865145       0.03217114       1.17316325
C        0.57374495      -0.57684963      -0.44437328
C       -0.44977914      -0.62634909       0.55189835
C       -1.48002710       0.29362669       0.03602220
O       -1.18040620      -0.47456749      -1.11754912
H        0.89850006       1.59790687      -0.21529789
H        2.38606790       0.63262082      -0.50981472
H        1.03728019      -1.46515087      -0.85827636
H       -0.70954967      -1.51959522       1.10822477
H       -1.24440406       1.35609383      -0.02770082
H       -2.49271137       0.13018720       0.40633949
12
Frame=4 idx=005558 GeodesicLength=0.17614630288860253 rxn_smarts="[C:1]1([H:7])([H:8])[O:2][C@:3]1([C@@:4]1([H:10])[C:5]([H:11])([H:12])[O:6]1)[H:9]>>[C:1]1([H:7])([H:8])[O:2][C@:4]2([H:10])[C@@:3]1([H:9])[O:6][C:5]2([H:11])[H:12]"
C        1.37747069       0.62097922      -0.10745248
O        1.27665233       0.02889705       1.16639483
C        0.57631474      -0.57514571      -0.44584801
C       -0.45118585      -0.62414131       0.55262585
C       -1.48513227       0.29394835       0.03994258
O       -1.17324553      -0.47282546      -1.11175082
H        0.91037757       1.60152465      -0.22281614
H        2.39527512       0.62620347      -0.50332698
H        1.03733380      -1.46315889      -0.86388995
H       -0.70804792      -1.51575936       1.11345909
H       -1.25730917       1.35798084      -0.02154262
H       -2.49850352       0.12149715       0.40420465
12
Frame=5 idx=005558 GeodesicLength=0.22013186387967815 rxn_smarts="[C:1]1([H:7])([H:8])[O:2][C@:3]1([C@@:4]1([H:10])[C:5]([H:11])([H:12])[O:6]1)[H:9]>>[C:1]1([H:7])([H:8])[O:2][C@:4]2([H:10])[C@@:3]1([H:9])[O:6][C:5]2([H:11])[H:12]"
C        1.38237880       0.62197840      -0.11225199
O        1.26480048       0.02583956       1.15955091
C        0.57887222      -0.57344082      -0.44734012
C       -0.45261113      -0.62191125       0.55336922
C       -1.49029103       0.29421289       0.04385774
O       -1.16613492      -0.47092928      -1.10596595
H        0.92246690       1.60507620      -0.23028317
H        2.40437156       0.61973774      -0.49678433
H        1.03734414      -1.46117848      -0.86947452
H       -0.70654345      -1.51189664       1.11867287
H       -1.27040076       1.35977612      -0.01535464
H       -2.50425281       0.11273555       0.40200399
12
Frame=6 idx=005558 GeodesicLength=0.2640909215658608 rxn_smarts="[C:1]1([H:7])([H:8])[O:2][C@:3]1([C@@:4]1([H:10])[C:5]([H:11])([H:12])[O:6]1)[H:9]>>[C:1]1([H:7])([H:8])[O:2][C@:4]2([H:10])[C@@:3]1([H:9])[O:6][C:5]2([H:11])[H:12]"
C        1.38735703       0.62290554      -0.11703211
O        1.25309492       0.02298943       1.15263804
C        0.58141810      -0.57173017      -0.44884754
C       -0.45405522      -0.61965591       0.55413016
C       -1.49550395       0.29442005       0.04776508
O       -1.15907167      -0.46887910      -1.10018990
H        0.93476940       1.60856017      -0.23769761
H        2.41335840       0.61322501      -0.49020038
H        1.03731132      -1.45920687      -0.87502534
H       -0.70503676      -1.50800851       1.12386117
H       -1.28368256       1.36147503      -0.00914168
H       -2.50995901       0.10390534       0.39974011
12
Frame=7 idx=005558 GeodesicLength=0.30802420293213256 rxn_smarts="[C:1]1([H:7])([H:8])[O:2][C@:3]1([C@@:4]1([H:10])[C:5]([H:11])([H:12])[O:6]1)[H:9]>>[C:1]1([H:7])([H:8])[O:2][C@:4]2([H:10])[C@@:3]1([H:9])[O:6][C:5]2([H:11])[H:12]"
C        1.39240830       0.62376015      -0.12179757
O        1.24152765       0.02035167       1.14565128
C        0.58395068      -0.57001368      -0.45037457
C       -0.45551707      -0.61737246       0.55490678
C       -1.50077318       0.29456933       0.05166839
O       -1.15205874      -0.46667229      -1.09442680
H        0.94729200       1.61197674      -0.24506092
H        2.42224063       0.60665869      -0.48356450
H        1.03723062      -1.45724419      -0.88054883
H       -0.70351984      -1.50408660       1.12903433
H       -1.29715833       1.36307641      -0.00289584
H       -2.51562274       0.09499624       0.39740826
12
Frame=8 idx=005558 GeodesicLength=0.35193411996632196 rxn_smarts="[C:1]1([H:7])([H:8])[O:2][C@:3]1([C@@:4]1([H:10])[C:5]([H:11])([H:12])[O:6]1)[H:9]>>[C:1]1([H:7])([H:8])[O:2][C@:4]2([H:10])[C@@:3]1([H:9])[O:6][C:5]2([H:11])[H:12]"
C        1.39753605       0.62454182      -0.12655049
O        1.23009341       0.01792940       1.13859555
C        0.58647007      -0.56828773      -0.45192218
C       -0.45699598      -0.61505781       0.55569883
C       -1.50610262       0.29466059       0.05556881
O       -1.14509365      -0.46430189      -1.08867443
H        0.96004120       1.61532122      -0.25238684
H        2.43102395       0.60002847      -0.47686875
H        1.03709818      -1.45528494      -0.88605520
H       -0.70198740      -1.50012482       1.13419863
H       -1.31083815       1.36457839       0.00339184
H       -2.52124505       0.08599730       0.39500422
12
Frame=9 idx=005558 GeodesicLength=0.39582328362393937 rxn_smarts="[C:1]1([H:7])([H:8])[O:2][C@:3]1([C@@:4]1([H:10])[C:5]([H:11])([H:12])[O:6]1)[H:9]>>[C:1]1([H:7])([H:8])[O:2][C@:4]2([H:10])[C@@:3]1([H:9])[O:6][C:5]2([H:11])[H:12]"
C        1.40273972       0.62525414      -0.13129079
O        1.21879048       0.01571235       1.13147088
C        0.58897562      -0.56654828      -0.45348948
C       -0.45849125      -0.61270889       0.55650871
C       -1.51149076       0.29469270       0.05946586
O       -1.13817811      -0.46177352      -1.08292815
H        0.97301731       1.61859577      -0.25966972
H        2.43971017       0.59333857      -0.47012004
H        1.03691197      -1.45332836      -0.89153884
H       -0.70043900      -1.49612505       1.13934747
H       -1.32472199       1.36597510       0.00971201
H       -2.52682417       0.07691546       0.39253207
12
Frame=10 idx=005558 GeodesicLength=0.43968911806230865 rxn_smarts="[C:1]1([H:7])([H:8])[O:2][C@:3]1([C@@:4]1([H:10])[C:5]([H:11])([H:12])[O:6]1)[H:9]>>[C:1]1([H:7])([H:8])[O:2][C@:4]2([H:10])[C@@:3]1([H:9])[O:6][C:5]2([H:11])[H:12]"
C        1.40802220       0.62589613      -0.13602048
O        1.20761412       0.01370618       1.12427934
C        0.59146699      -0.56479404      -0.45507950
C       -0.46000269      -0.61032339       0.55733530
C       -1.51694161       0.29466561       0.06336034
O       -1.13131203      -0.45908181      -1.07719001
H        0.98622908       1.62179875      -0.26691529
H        2.44830331       0.58658050      -0.46331128
H        1.03666886      -1.45137239      -0.89700910
H       -0.69886918      -1.49208164       1.14449016
H       -1.33881889       1.36726559       0.01607085
H       -2.53236016       0.06774051       0.38998967
12
Frame=11 idx=005558 GeodesicLength=0.4835436247082916 rxn_smarts="[C:1]1([H:7])([H:8])[O:2][C@:3]1([C@@:4]1([H:10])[C:5]([H:11])([H:12])[O:6]1)[H:9]>>[C:1]1([H:7])([H:8])[O:2][C@:4]2([H:10])[C@@:3]1([H:9])[O:6][C:5]2([H:11])[H:12]"
C        1.41338745       0.62646692      -0.14074405
O        1.19655614       0.01191508       1.11701574
C        0.59394395      -0.56302147      -0.45669374
C       -0.46152985      -0.60789606       0.55817637
C       -1.52245943       0.29457672       0.06725439
O       -1.12449374      -0.45622080      -1.07145892
H        0.99968491       1.62492422      -0.27413566
H        2.45681243       0.57974385      -0.45642852
H        1.03636344      -1.44941058      -0.90247405
H       -0.69727184      -1.48798161       1.14963374
H       -1.35313768       1.36844370       0.02248307
H       -2.53785578       0.05846004       0.38737164
12
Frame=12 idx=005558 GeodesicLength=0.5273775946594157 rxn_smarts="[C:1]1([H:7])([H:8])[O:2][C@:3]1([C@@:4]1([H:10])[C:5]([H:11])([H:12])[O:6]1)[H:9]>>[C:1]1([H:7])([H:8])[O:2][C@:4]2([H:10])[C@@:3]1([H:9])[O:6][C:5]2([H:11])[H:12]"
C        1.41883445       0.62696880      -0.14545867
O        1.18561621       0.01033285       1.10968731
C        0.59640605      -0.56122672      -0.45833153
C       -0.46307222      -0.60542668       0.55903405
C       -1.52804255       0.29442598       0.07114644
O       -1.11772512      -0.45319203      -1.06573053
H        1.01338477       1.62797375      -0.28132200
H        2.46523160       0.57282978      -0.44948478
H        1.03599639      -1.44744140      -0.90793021
H       -0.69564599      -1.48383008       1.15477338
H       -1.36767790       1.36950359       0.02893362
H       -2.54330570       0.04908216       0.38468292
12
Frame=13 idx=005558 GeodesicLength=0.5711936350904192 rxn_smarts="[C:1]1([H:7])([H:8])[O:2][C@:3]1([C@@:4]1([H:10])[C:5]([H:11])([H:12])[O:6]1)[H:9]>>[C:1]1([H:7])([H:8])[O:2][C@:4]2([H:10])[C@@:3]1([H:9])[O:6][C:5]2([H:11])[H:12]"
C        1.42436805       0.62740116      -0.15016763
O        1.17479174       0.00896253       1.10229057
C        0.59885199      -0.55940853      -0.45999531
C       -0.46462906      -0.60291036       0.55990844
C       -1.53369609       0.29421362       0.07503857
O       -1.11100639      -0.44998960      -1.06000770
H        1.02733912       1.63094467      -0.28848573
H        2.47356906       0.56583304      -0.44246828
H        1.03556121      -1.44546496      -0.91338246
H       -0.69398573      -1.47962020       1.15991655
H       -1.38245073       1.37044664       0.03543610
H       -2.54871318       0.03959199       0.38191690
12
Frame=14 idx=005558 GeodesicLength=0.6150065555712799 rxn_smarts="[C:1]1([H:7])([H:8])[O:2][C@:3]1([C@@:4]1([H:10])[C:5]([H:11])([H:12])[O:6]1)[H:9]>>[C:1]1([H:7])([H:8])[O:2][C@:4]2([H:10])[C@@:3]1([H:9])[O:6][C:5]2([H:11])[H:12]"
C        1.42999123       0.62776278      -0.15487489
O        1.16407012       0.00781216       1.09482413
C        0.60128157      -0.55756117      -0.46168571
C       -0.46620108      -0.60034222       0.56079869
C       -1.53942125       0.29393520       0.07893383
O       -1.10433274      -0.44660488      -1.05428782
H        1.04155938       1.63383116      -0.29563768
H        2.48182782       0.55873947      -0.43537360
H        1.03505417      -1.44347246      -0.91883832
H       -0.69228855      -1.47533883       1.16506946
H       -1.39746430       1.37126127       0.04200799
H       -2.55407635       0.02997751       0.37906394
12
Frame=15 idx=005558 GeodesicLength=0.6588040657796962 rxn_smarts="[C:1]1([H:7])([H:8])[O:2][C@:3]1([C@@:4]1([H:10])[C:5]([H:11])([H:12])[O:6]1)[H:9]>>[C:1]1([H:7])([H:8])[O:2][C@:4]2([H:10])[C@@:3]1([H:9])[O:6][C:5]2([H:11])[H:12]"
C        1.43570377       0.62805526      -0.15957700
O        1.15345731       0.00687140       1.08729095
C        0.60369305      -0.55568250      -0.46340477
C       -0.46778620      -0.59771942       0.56170782
C       -1.54521916       0.29359373       0.08283056
O       -1.09770892      -0.44304371      -1.04856841
H        1.05604356       1.63663396      -0.30276571
H        2.49000345       0.55155453      -0.42820668
H        1.03447464      -1.44146565      -0.92429439
H       -0.69054940      -1.47099263       1.17022720
H       -1.41272000       1.37194879       0.04862681
H       -2.55939210       0.02024624       0.37613362
12
Frame=16 idx=005558 GeodesicLength=0.7025934558269447 rxn_smarts="[C:1]1([H:7])([H:8])[O:2][C@:3]1([C@@:4]1([H:10])[C:5]([H:11])([H:12])[O:6]1)[H:9]>>[C:1]1([H:7])([H:8])[O:2][C@:4]2([H:10])[C@@:3]1([H:9])[O:6][C:5]2([H:11])[H:12]"
C        1.44151212       0.62827731      -0.16427689
O        1.14294664       0.00615021       1.07968656
C        0.60608590      -0.55376691      -0.46515146
C       -0.46938490      -0.59503730       0.56263364
C       -1.55109448       0.29318453       0.08673099
O       -1.09113583      -0.43929598      -1.04284570
H        1.07080514       1.63934567      -0.30988485
H        2.49810447       0.54426452      -0.42095556
H        1.03381535      -1.43943467      -0.92975706
H       -0.68876319      -1.46656920       1.17539412
H       -1.42822881       1.37249786       0.05531007
H       -2.56466242       0.01038395       0.37311614
