12
Frame=0 idx=001944 GeodesicLength=0.0 rxn_smarts="[C:1]([n:2]1[c:3]([H:10])[c:4]([H:11])[n:5][c:6]1[H:12])([H:7])([H:8])[H:9]>>[C:1]([C@:3]1([H:10])[N:2]=[C:6]([H:12])[N:5]=[C:4]1[H:11])([H:7])([H:8])[H:9]"
C       -1.30792138      -0.44055463      -0.34071774
N       -0.30672113       0.51926608       0.92231916
C        0.37250934      -0.67058814       0.57756726
C        1.47043988      -0.31671395      -0.20130291
N        1.46889941       1.01034359      -0.38484088
C        0.40122907       1.46141607       0.27316189
H       -0.96380503      -0.05448703      -1.29325130
H       -1.46013367      -1.51660719      -0.36126962
H       -2.20342285       0.04937391       0.01991931
H        0.19231897      -1.58225325       1.12518620
H        2.22565448      -0.96077421      -0.62630319
H        0.11095295       2.50157871       0.28953182
12
Frame=1 idx=001944 GeodesicLength=0.05588765849109904 rxn_smarts="[C:1]([n:2]1[c:3]([H:10])[c:4]([H:11])[n:5][c:6]1[H:12])([H:7])([H:8])[H:9]>>[C:1]([C@:3]1([H:10])[N:2]=[C:6]([H:12])[N:5]=[C:4]1[H:11])([H:7])([H:8])[H:9]"
C       -1.31457239      -0.44659390      -0.33985406
N       -0.30659346       0.51223705       0.91299011
C        0.37419723      -0.67345050       0.56050448
C        1.48118275      -0.30606065      -0.20256948
N        1.47877642       1.02168063      -0.37274121
C        0.40139354       1.46252301       0.28015281
H       -0.97241744      -0.11413080      -1.31356137
H       -1.50647752      -1.51624383      -0.31205543
H       -2.20239871       0.08436031      -0.01853024
H        0.20912123      -1.58397899       1.11516481
H        2.23949762      -0.94442103      -0.63099652
H        0.11829072       2.50407871       0.32149611
12
Frame=2 idx=001944 GeodesicLength=0.11087958940071477 rxn_smarts="[C:1]([n:2]1[c:3]([H:10])[c:4]([H:11])[n:5][c:6]1[H:12])([H:7])([H:8])[H:9]>>[C:1]([C@:3]1([H:10])[N:2]=[C:6]([H:12])[N:5]=[C:4]1[H:11])([H:7])([H:8])[H:9]"
C       -1.32085701      -0.45233703      -0.33937690
N       -0.30651913       0.50521545       0.90382741
C        0.37594096      -0.67616912       0.54345337
C        1.49171378      -0.29526565      -0.20361464
N        1.48857160       1.03309923      -0.35979375
C        0.40200431       1.46372663       0.28854818
H       -0.98157456      -0.17699444      -1.33222182
H       -1.55224327      -1.51178272      -0.26127280
H       -2.19883644       0.11842176      -0.05978315
H        0.22545792      -1.58563872       1.10444564
H        2.25185102      -0.92799547      -0.63749731
H        0.12449083       2.50572008       0.35328576
12
Frame=3 idx=001944 GeodesicLength=0.16494855974351394 rxn_smarts="[C:1]([n:2]1[c:3]([H:10])[c:4]([H:11])[n:5][c:6]1[H:12])([H:7])([H:8])[H:9]>>[C:1]([C@:3]1([H:10])[N:2]=[C:6]([H:12])[N:5]=[C:4]1[H:11])([H:7])([H:8])[H:9]"
C       -1.32678447      -0.45772599      -0.33928532
N       -0.30643919       0.49817877       0.89488493
C        0.37773752      -0.67877255       0.52638136
C        1.50193994      -0.28440722      -0.20462547
N        1.49831656       1.04452684      -0.34597941
C        0.40316412       1.46496059       0.29851367
H       -0.99162915      -0.24285237      -1.34882221
H       -1.59726734      -1.50290843      -0.20946499
H       -2.19265443       0.15125975      -0.10354575
H        0.24127416      -1.58733213       1.09293241
H        2.26298249      -0.91145874      -0.64547653
H        0.12935978       2.50653148       0.38448731
12
Frame=4 idx=001944 GeodesicLength=0.21802235495150651 rxn_smarts="[C:1]([n:2]1[c:3]([H:10])[c:4]([H:11])[n:5][c:6]1[H:12])([H:7])([H:8])[H:9]>>[C:1]([C@:3]1([H:10])[N:2]=[C:6]([H:12])[N:5]=[C:4]1[H:11])([H:7])([H:8])[H:9]"
C       -1.33228236      -0.46241968      -0.33941357
N       -0.30602992       0.49084415       0.88664718
C        0.37967069      -0.68149685       0.50923281
C        1.51190411      -0.27364517      -0.20569941
N        1.50839393       1.05584837      -0.33064858
C        0.40534715       1.46599991       0.31095684
H       -1.00290979      -0.31077925      -1.36274911
H       -1.64140875      -1.48913633      -0.15744404
H       -2.18362063       0.18296392      -0.14906336
H        0.25651851      -1.58954596       1.08020054
H        2.27319213      -0.89481742      -0.65475964
H        0.13122494       2.50618432       0.41274035
12
Frame=5 idx=001944 GeodesicLength=0.2702308134552628 rxn_smarts="[C:1]([n:2]1[c:3]([H:10])[c:4]([H:11])[n:5][c:6]1[H:12])([H:7])([H:8])[H:9]>>[C:1]([C@:3]1([H:10])[N:2]=[C:6]([H:12])[N:5]=[C:4]1[H:11])([H:7])([H:8])[H:9]"
C       -1.33738279      -0.46683359      -0.33998644
N       -0.30562878       0.48352333       0.87862947
C        0.38165513      -0.68407596       0.49210594
C        1.52148057      -0.26287962      -0.20687790
N        1.51859335       1.06708866      -0.31411971
C        0.40808976       1.46694983       0.32510983
H       -1.01563889      -0.38143074      -1.37389638
H       -1.68447169      -1.47069795      -0.10537404
H       -2.17184081       0.21291472      -0.19681198
H        0.27123253      -1.59183442       1.06674152
H        2.28217659      -0.87800543      -0.66553946
H        0.13173504       2.50528119       0.44001914
12
Frame=6 idx=001944 GeodesicLength=0.32167337657941014 rxn_smarts="[C:1]([n:2]1[c:3]([H:10])[c:4]([H:11])[n:5][c:6]1[H:12])([H:7])([H:8])[H:9]>>[C:1]([C@:3]1([H:10])[N:2]=[C:6]([H:12])[N:5]=[C:4]1[H:11])([H:7])([H:8])[H:9]"
C       -1.34225949      -0.47096710      -0.34090620
N       -0.30509369       0.47609967       0.87079558
C        0.38365338      -0.68658021       0.47466522
C        1.53049271      -0.25211870      -0.20871417
N        1.52897653       1.07820825      -0.29644602
C        0.41147370       1.46767425       0.34098654
H       -1.03051916      -0.45444671      -1.38179095
H       -1.72650987      -1.44748847      -0.05368203
H       -2.15733029       0.24100176      -0.24635508
H        0.28544366      -1.59433675       1.05214433
H        2.29088968      -0.86083091      -0.67669283
H        0.13078286       2.50378493       0.46599561
12
Frame=7 idx=001944 GeodesicLength=0.37223992163434005 rxn_smarts="[C:1]([n:2]1[c:3]([H:10])[c:4]([H:11])[n:5][c:6]1[H:12])([H:7])([H:8])[H:9]>>[C:1]([C@:3]1([H:10])[N:2]=[C:6]([H:12])[N:5]=[C:4]1[H:11])([H:7])([H:8])[H:9]"
C       -1.34649306      -0.47313475      -0.34124960
N       -0.30297840       0.46702281       0.86567780
C        0.38619462      -0.69014971       0.45675430
C        1.53961718      -0.24186987      -0.21080462
N        1.54131134       1.08875882      -0.27403054
C        0.41748084       1.46710213       0.36302560
H       -1.04780104      -0.52556170      -1.38531787
H       -1.76741707      -1.41832441      -0.00404331
H       -2.13918520       0.26908085      -0.29459235
H        0.29924783      -1.59935126       1.03439921
H        2.29979308      -0.84331488      -0.68880923
H        0.12022988       2.49974196       0.47899060
12
Frame=8 idx=001944 GeodesicLength=0.42215826541413387 rxn_smarts="[C:1]([n:2]1[c:3]([H:10])[c:4]([H:11])[n:5][c:6]1[H:12])([H:7])([H:8])[H:9]>>[C:1]([C@:3]1([H:10])[N:2]=[C:6]([H:12])[N:5]=[C:4]1[H:11])([H:7])([H:8])[H:9]"
C       -1.35056725      -0.47599895      -0.34242453
N       -0.30155396       0.45865747       0.85959913
C        0.38854534      -0.69300590       0.43884775
C        1.54799030      -0.23132299      -0.21338238
N        1.55361681       1.09923642      -0.25057560
C        0.42289703       1.46665577       0.38478921
H       -1.06745374      -0.60015307      -1.38537222
H       -1.80682568      -1.38523451       0.04481380
H       -2.11866064       0.29388650      -0.34588004
H        0.31269334      -1.60341731       1.01689345
H        2.30726172      -0.82532773      -0.70236556
H        0.11205674       2.49602429       0.49505699
12
Frame=9 idx=001944 GeodesicLength=0.47156250893108176 rxn_smarts="[C:1]([n:2]1[c:3]([H:10])[c:4]([H:11])[n:5][c:6]1[H:12])([H:7])([H:8])[H:9]>>[C:1]([C@:3]1([H:10])[N:2]=[C:6]([H:12])[N:5]=[C:4]1[H:11])([H:7])([H:8])[H:9]"
C       -1.35457584      -0.47877115      -0.34375997
N       -0.29993334       0.45007672       0.85367262
C        0.39087323      -0.69573815       0.42035145
C        1.55577091      -0.22058669      -0.21688202
N        1.56687195       1.10936769      -0.22439871
C        0.42878185       1.46567495       0.40826196
H       -1.09031535      -0.67561191      -1.38106016
H       -1.84489101      -1.34777846       0.09196457
H       -2.09545069       0.31622836      -0.39813966
H        0.32580046      -1.60768455       0.99799542
H        2.31476142      -0.80657467      -0.71615777
H        0.10230643       2.49139785       0.50815227
12
Frame=10 idx=001944 GeodesicLength=0.5205087088745344 rxn_smarts="[C:1]([n:2]1[c:3]([H:10])[c:4]([H:11])[n:5][c:6]1[H:12])([H:7])([H:8])[H:9]>>[C:1]([C@:3]1([H:10])[N:2]=[C:6]([H:12])[N:5]=[C:4]1[H:11])([H:7])([H:8])[H:9]"
C       -1.35867426      -0.48199295      -0.34546932
N       -0.29861204       0.44177318       0.84714373
C        0.39306557      -0.69803997       0.40132176
C        1.56287871      -0.20951700      -0.22139717
N        1.58100524       1.11906701      -0.19564789
C        0.43434124       1.46442159       0.43192643
H       -1.11640672      -0.75234482      -1.37218262
H       -1.88152294      -1.30647335       0.13719581
H       -2.07000034       0.33515405      -0.45200141
H        0.33870557      -1.61149284       0.97845521
H        2.32203437      -0.78709071      -0.73046725
H        0.09318560       2.48653580       0.52112272
12
Frame=11 idx=001944 GeodesicLength=0.5691307688146147 rxn_smarts="[C:1]([n:2]1[c:3]([H:10])[c:4]([H:11])[n:5][c:6]1[H:12])([H:7])([H:8])[H:9]>>[C:1]([C@:3]1([H:10])[N:2]=[C:6]([H:12])[N:5]=[C:4]1[H:11])([H:7])([H:8])[H:9]"
C       -1.36302538      -0.48604657      -0.34756705
N       -0.29762472       0.43390538       0.83956147
C        0.39500793      -0.69974137       0.38154565
C        1.56908884      -0.19787587      -0.22718278
N        1.59603751       1.12821176      -0.16420327
C        0.43938483       1.46294410       0.45501596
H       -1.14602267      -0.83045031      -1.35826771
H       -1.91678390      -1.26149727       0.18040620
H       -2.04230555       0.34997724      -0.50793370
H        0.35145435      -1.61445639       0.95828383
H        2.32907512      -0.76667059      -0.74501394
H        0.08571366       2.48169989       0.53535535
12
Frame=12 idx=001944 GeodesicLength=0.6174937462971953 rxn_smarts="[C:1]([n:2]1[c:3]([H:10])[c:4]([H:11])[n:5][c:6]1[H:12])([H:7])([H:8])[H:9]>>[C:1]([C@:3]1([H:10])[N:2]=[C:6]([H:12])[N:5]=[C:4]1[H:11])([H:7])([H:8])[H:9]"
C       -1.36768822      -0.49079261      -0.34984007
N       -0.29686057       0.42631143       0.83117772
C        0.39678247      -0.70098568       0.36090023
C        1.57457023      -0.18562771      -0.23422139
N        1.61212879       1.13645060      -0.12949785
C        0.44394837       1.46112649       0.47775623
H       -1.17919434      -0.90870920      -1.33895741
H       -1.95066957      -1.21294374       0.22109951
H       -2.01251773       0.36053968      -0.56534732
H        0.36420850      -1.61686138       0.93721890
H        2.33616877      -0.74526714      -0.75976662
H        0.07912331       2.47675925       0.54947808
12
Frame=13 idx=001944 GeodesicLength=0.6656327231297509 rxn_smarts="[C:1]([n:2]1[c:3]([H:10])[c:4]([H:11])[n:5][c:6]1[H:12])([H:7])([H:8])[H:9]>>[C:1]([C@:3]1([H:10])[N:2]=[C:6]([H:12])[N:5]=[C:4]1[H:11])([H:7])([H:8])[H:9]"
C       -1.37273478      -0.49617090      -0.35217048
N       -0.29628673       0.41894502       0.82212690
C        0.39846475      -0.70185744       0.33928504
C        1.57947232      -0.17272459      -0.24249335
N        1.62905180       1.14345961      -0.09154039
C        0.44796006       1.45895122       0.50014771
H       -1.21581894      -0.98616330      -1.31410855
H       -1.98318260      -1.16097091       0.25891354
H       -1.98095500       0.36658842      -0.62384366
H        0.37716110      -1.61889701       0.91513618
H        2.34363312      -0.72290316      -0.77450537
H        0.07323489       2.47174303       0.56305244
12
Frame=14 idx=001944 GeodesicLength=0.7137758310119982 rxn_smarts="[C:1]([n:2]1[c:3]([H:10])[c:4]([H:11])[n:5][c:6]1[H:12])([H:7])([H:8])[H:9]>>[C:1]([C@:3]1([H:10])[N:2]=[C:6]([H:12])[N:5]=[C:4]1[H:11])([H:7])([H:8])[H:9]"
C       -1.37820121      -0.50218638      -0.35424368
N       -0.29564529       0.41152861       0.81259948
C        0.39999734      -0.70235071       0.31643637
C        1.58375631      -0.15884722      -0.25180828
N        1.64661447       1.14893962      -0.05029277
C        0.45166259       1.45621025       0.52259785
H       -1.25612936      -1.06208660      -1.28324406
H       -2.01434030      -1.10557992       0.29370704
H       -1.94703848       0.36789249      -0.68335880
H        0.39022902      -1.62065732       0.89132906
H        2.35149374      -0.69919923      -0.78890990
H        0.06760116       2.46633641       0.57518769
12
Frame=15 idx=001944 GeodesicLength=0.7614259924913334 rxn_smarts="[C:1]([n:2]1[c:3]([H:10])[c:4]([H:11])[n:5][c:6]1[H:12])([H:7])([H:8])[H:9]>>[C:1]([C@:3]1([H:10])[N:2]=[C:6]([H:12])[N:5]=[C:4]1[H:11])([H:7])([H:8])[H:9]"
C       -1.38394620      -0.50892962      -0.35629920
N       -0.29525156       0.40436906       0.80225021
C        0.40135289      -0.70238578       0.29263807
C        1.58763067      -0.14419190      -0.26178981
N        1.66334470       1.15298211      -0.00858383
C        0.45473584       1.45306090       0.54429805
H       -1.29901371      -1.13568273      -1.24668109
H       -2.04400434      -1.04718701       0.32478235
H       -1.91161577       0.36363385      -0.74354648
H        0.40330305      -1.62190379       0.86657402
H        2.35987575      -0.67474709      -0.80232376
H        0.06358867       2.46098200       0.58868148
12
Frame=16 idx=001944 GeodesicLength=0.808975220125337 rxn_smarts="[C:1]([n:2]1[c:3]([H:10])[c:4]([H:11])[n:5][c:6]1[H:12])([H:7])([H:8])[H:9]>>[C:1]([C@:3]1([H:10])[N:2]=[C:6]([H:12])[N:5]=[C:4]1[H:11])([H:7])([H:8])[H:9]"
C       -1.38995913      -0.51630094      -0.35816143
N       -0.29494003       0.39735057       0.79145487
C        0.40264690      -0.70202782       0.26802356
C        1.59141255      -0.12883402      -0.27180571
N        1.67917336       1.15549683       0.03341123
C        0.45732703       1.44942388       0.56575617
H       -1.34430215      -1.20627822      -1.20440557
H       -2.07223220      -0.98575915       0.35180913
H       -1.87443869       0.35365720      -0.80436099
H        0.41644707      -1.62280675       0.84073308
H        2.36841722      -0.64948685      -0.81536615
H        0.06044807       2.45556528       0.60291180
