15
Frame=0 idx=007235 GeodesicLength=0.0 rxn_smarts="[C:1]([n:2]1[c:3]([H:11])[n:4][c:5]([C:6]([H:12])([H:13])[H:14])[c:7]1[H:15])([H:8])([H:9])[H:10]>>[C:1](/[N:2]=[C:3](/[N:4]1[C:5]([C:6]([H:12])([H:13])[H:14])=[C:7]1[H:15])[H:11])([H:8])([H:9])[H:10]"
C       -2.80815842      -0.32018676      -0.10162869
N       -1.47196968       0.23286929      -0.09306528
C       -0.67638898      -0.10378447       0.85100994
N        0.62268147       0.22207395       0.93180991
C        1.50066637       0.35630451      -0.16371474
C        2.88936992      -0.15427131      -0.12306871
C        0.71672993       1.02585284      -0.90637091
H       -2.93089150      -0.99120483      -0.95630770
H       -3.05085156      -0.88810778       0.80592564
H       -3.54230258       0.48125919      -0.21356569
H       -1.02542128      -0.66165592       1.72702451
H        3.37785220       0.23183224       0.77199125
H        2.86783836      -1.24325922      -0.05317244
H        3.44993123       0.14483744      -1.00689782
H        0.08091452       1.66744087      -1.46996929
15
Frame=1 idx=007235 GeodesicLength=0.06877217458375555 rxn_smarts="[C:1]([n:2]1[c:3]([H:11])[n:4][c:5]([C:6]([H:12])([H:13])[H:14])[c:7]1[H:15])([H:8])([H:9])[H:10]>>[C:1](/[N:2]=[C:3](/[N:4]1[C:5]([C:6]([H:12])([H:13])[H:14])=[C:7]1[H:15])[H:11])([H:8])([H:9])[H:10]"
C       -2.79391411      -0.31870673      -0.11213621
N       -1.45443526       0.22476066      -0.08864244
C       -0.67405448      -0.09684544       0.87534137
N        0.62186049       0.24638195       0.95178717
C        1.48785048       0.34723182      -0.15772494
C        2.87861534      -0.15649172      -0.12921814
C        0.68445881       1.00492672      -0.89410102
H       -2.91082246      -0.98827032      -0.96860925
H       -3.04834165      -0.88514922       0.79281758
H       -3.52170155       0.48748736      -0.23082791
H       -1.02132337      -0.67791946       1.73582361
H        3.38153698       0.24680513       0.75022200
H        2.86325080      -1.24418816      -0.03979486
H        3.42305697       0.12940503      -1.02748356
H        0.08396300       1.68057238      -1.45745340
15
Frame=2 idx=007235 GeodesicLength=0.13752911615090607 rxn_smarts="[C:1]([n:2]1[c:3]([H:11])[n:4][c:5]([C:6]([H:12])([H:13])[H:14])[c:7]1[H:15])([H:8])([H:9])[H:10]>>[C:1](/[N:2]=[C:3](/[N:4]1[C:5]([C:6]([H:12])([H:13])[H:14])=[C:7]1[H:15])[H:11])([H:8])([H:9])[H:10]"
C       -2.77995097      -0.31708528      -0.12220301
N       -1.43741387       0.21679825      -0.08386596
C       -0.67176522      -0.09092452       0.89849279
N        0.62070957       0.26989869       0.97063577
C        1.47522660       0.33900947      -0.15110451
C        2.86776173      -0.15837070      -0.13503631
C        0.65351973       0.98711479      -0.87983434
H       -2.89158395      -0.98396147      -0.98130868
H       -3.04529887      -0.88333640       0.77942227
H       -3.50143809       0.49394691      -0.24584299
H       -1.01691626      -0.69278647       1.74447283
H        3.38445623       0.26033357       0.72918215
H        2.85860554      -1.24458511      -0.02809545
H        3.39642225       0.11539920      -1.04651070
H        0.08766557       1.68854907      -1.44840386
15
Frame=3 idx=007235 GeodesicLength=0.20630942298922073 rxn_smarts="[C:1]([n:2]1[c:3]([H:11])[n:4][c:5]([C:6]([H:12])([H:13])[H:14])[c:7]1[H:15])([H:8])([H:9])[H:10]>>[C:1](/[N:2]=[C:3](/[N:4]1[C:5]([C:6]([H:12])([H:13])[H:14])=[C:7]1[H:15])[H:11])([H:8])([H:9])[H:10]"
C       -2.76594194      -0.31565398      -0.13205573
N       -1.42096813       0.20960616      -0.07843193
C       -0.66950461      -0.08542367       0.92084196
N        0.61930185       0.29298974       0.98861090
C        1.46274037       0.33164073      -0.14391909
C        2.85661903      -0.16028739      -0.14070099
C        0.62381710       0.97219896      -0.86390137
H       -2.87211258      -0.97834368      -0.99492091
H       -3.04122667      -0.88354446       0.76524357
H       -3.48178690       0.49983301      -0.25871281
H       -1.01256179      -0.70514498       1.75378418
H        3.38672644       0.27213244       0.70860777
H        2.85337423      -1.24489714      -0.01798703
H        3.36977004       0.10214245      -1.06439409
H        0.09175358       1.69275182      -1.44206444
15
Frame=4 idx=007235 GeodesicLength=0.275119054748446 rxn_smarts="[C:1]([n:2]1[c:3]([H:11])[n:4][c:5]([C:6]([H:12])([H:13])[H:14])[c:7]1[H:15])([H:8])([H:9])[H:10]>>[C:1](/[N:2]=[C:3](/[N:4]1[C:5]([C:6]([H:12])([H:13])[H:14])=[C:7]1[H:15])[H:11])([H:8])([H:9])[H:10]"
C       -2.75176376      -0.31455155      -0.14179650
N       -1.40507708       0.20331164      -0.07235458
C       -0.66724826      -0.08010360       0.94252972
N        0.61769557       0.31576205       1.00583084
C        1.45038339       0.32509741      -0.13625327
C        2.84513568      -0.16238933      -0.14630213
C        0.59527821       0.95994251      -0.84659043
H       -2.85200697      -0.97166221      -1.00946047
H       -3.03601015      -0.88586027       0.75021862
H       -3.46281992       0.50484860      -0.26974028
H       -1.00848852      -0.71470495       1.76407249
H        3.38843224       0.28215281       0.68838528
H        2.84737633      -1.24533128      -0.00939092
H        3.34301290       0.08937205      -1.08135432
H        0.09610035       1.69411610      -1.43779406
15
Frame=5 idx=007235 GeodesicLength=0.34387394320698444 rxn_smarts="[C:1]([n:2]1[c:3]([H:11])[n:4][c:5]([C:6]([H:12])([H:13])[H:14])[c:7]1[H:15])([H:8])([H:9])[H:10]>>[C:1](/[N:2]=[C:3](/[N:4]1[C:5]([C:6]([H:12])([H:13])[H:14])=[C:7]1[H:15])[H:11])([H:8])([H:9])[H:10]"
C       -2.73777775      -0.31346265      -0.15127171
N       -1.38951660       0.19682499      -0.06629478
C       -0.66488386      -0.07578289       0.96315270
N        0.61587062       0.33775906       1.02217355
C        1.43831460       0.31924685      -0.12823188
C        2.83365295      -0.16428968      -0.15169620
C        0.56789897       0.94977138      -0.82829904
H       -2.83246026      -0.96445649      -1.02399411
H       -3.03049465      -0.88864534       0.73519312
H       -3.44405876       0.50993192      -0.27959673
H       -1.00461219      -0.72283978       1.77470403
H        3.38965525       0.29105058       0.66878216
H        2.84129063      -1.24555660      -0.00209169
H        3.31655333       0.07765961      -1.09723425
H        0.10056772       1.69278905      -1.43529519
15
Frame=6 idx=007235 GeodesicLength=0.41255826056701966 rxn_smarts="[C:1]([n:2]1[c:3]([H:11])[n:4][c:5]([C:6]([H:12])([H:13])[H:14])[c:7]1[H:15])([H:8])([H:9])[H:10]>>[C:1](/[N:2]=[C:3](/[N:4]1[C:5]([C:6]([H:12])([H:13])[H:14])=[C:7]1[H:15])[H:11])([H:8])([H:9])[H:10]"
C       -2.72406138      -0.31230183      -0.16046784
N       -1.37418399       0.18980175      -0.06044973
C       -0.66238343      -0.07257188       0.98270215
N        0.61382491       0.35890616       1.03768523
C        1.42657137       0.31404071      -0.11992494
C        2.82225867      -0.16589172      -0.15687116
C        0.54161300       0.94137226      -0.80925951
H       -2.81373428      -0.95704020      -1.03818636
H       -3.02500009      -0.89126096       0.72046325
H       -3.42529726       0.51533836      -0.28871226
H       -1.00089070      -0.73013539       1.78545154
H        3.39046255       0.29910603       0.64981664
H        2.83527109      -1.24550814       0.00406391
H        3.29047463       0.06707505      -1.11209917
H        0.10507493       1.68906980      -1.43421176
15
Frame=7 idx=007235 GeodesicLength=0.4812484847449787 rxn_smarts="[C:1]([n:2]1[c:3]([H:11])[n:4][c:5]([C:6]([H:12])([H:13])[H:14])[c:7]1[H:15])([H:8])([H:9])[H:10]>>[C:1](/[N:2]=[C:3](/[N:4]1[C:5]([C:6]([H:12])([H:13])[H:14])=[C:7]1[H:15])[H:11])([H:8])([H:9])[H:10]"
C       -2.71020631      -0.31139283      -0.16958910
N       -1.35920545       0.18323257      -0.05430999
C       -0.65983843      -0.06945210       1.00172966
N        0.61163275       0.37974594       1.05264880
C        1.41499464       0.30958826      -0.11132204
C        2.81060508      -0.16761472      -0.16201878
C        0.51628022       0.93492791      -0.78946644
H       -2.79449512      -0.94927673      -1.05267124
H       -3.01880057      -0.89488599       0.70537597
H       -3.40693852       0.52010533      -0.29698460
H       -0.99744594      -0.73577202       1.79679475
H        3.39088437       0.30587418       0.63112310
H        2.82856622      -1.24562046       0.00911138
H        3.26431050       0.05686210      -1.12633658
H        0.10965655       1.68367857      -1.43408488
15
Frame=8 idx=007235 GeodesicLength=0.5499616364487044 rxn_smarts="[C:1]([n:2]1[c:3]([H:11])[n:4][c:5]([C:6]([H:12])([H:13])[H:14])[c:7]1[H:15])([H:8])([H:9])[H:10]>>[C:1](/[N:2]=[C:3](/[N:4]1[C:5]([C:6]([H:12])([H:13])[H:14])=[C:7]1[H:15])[H:11])([H:8])([H:9])[H:10]"
C       -2.69612351      -0.31077915      -0.17867889
N       -1.34457838       0.17730610      -0.04781018
C       -0.65726200      -0.06617785       1.02038243
N        0.60932890       0.40041630       1.06716959
C        1.40354705       0.30590797      -0.10245008
C        2.79861899      -0.16953485      -0.16717496
C        0.49181815       0.93037375      -0.76901474
H       -2.77447065      -0.94117693      -1.06750680
H       -3.01175826      -0.89965860       0.68983708
H       -3.38905662       0.52406645      -0.30448117
H       -0.99427711      -0.73979305       1.80872711
H        3.39094509       0.31134007       0.61261482
H        2.82101701      -1.24599193       0.01314430
H        3.23794485       0.04684573      -1.14006401
H        0.11430649       1.67685600      -1.43469450
15
Frame=9 idx=007235 GeodesicLength=0.6186247964032404 rxn_smarts="[C:1]([n:2]1[c:3]([H:11])[n:4][c:5]([C:6]([H:12])([H:13])[H:14])[c:7]1[H:15])([H:8])([H:9])[H:10]>>[C:1](/[N:2]=[C:3](/[N:4]1[C:5]([C:6]([H:12])([H:13])[H:14])=[C:7]1[H:15])[H:11])([H:8])([H:9])[H:10]"
C       -2.68230308      -0.31003197      -0.18753836
N       -1.33004091       0.17060333      -0.04168953
C       -0.65455089      -0.06386062       1.03812275
N        0.60682050       0.42029581       1.08101678
C        1.39240729       0.30275776      -0.09345204
C        2.78675389      -0.17111223      -0.17215346
C        0.46822254       0.92697379      -0.74825616
H       -2.75528270      -0.93331666      -1.08166082
H       -3.00504596      -0.90356793       0.67486578
H       -3.37093434       0.52850643      -0.31191723
H       -0.99119720      -0.74371983       1.82047710
H        3.39070481       0.31644270       0.59456419
H        2.81360877      -1.24607024       0.01645681
H        3.21190528       0.03775062      -1.15304364
H        0.11893199       1.66834901      -1.43579215
15
Frame=10 idx=007235 GeodesicLength=0.6873077398269178 rxn_smarts="[C:1]([n:2]1[c:3]([H:11])[n:4][c:5]([C:6]([H:12])([H:13])[H:14])[c:7]1[H:15])([H:8])([H:9])[H:10]>>[C:1](/[N:2]=[C:3](/[N:4]1[C:5]([C:6]([H:12])([H:13])[H:14])=[C:7]1[H:15])[H:11])([H:8])([H:9])[H:10]"
C       -2.66833382      -0.30946646      -0.19635153
N       -1.31573782       0.16419712      -0.03540924
C       -0.65178135      -0.06152942       1.05546547
N        0.60419838       0.43994527       1.09446037
C        1.38142113       0.30029652      -0.08428399
C        2.77464912      -0.17276676      -0.17711944
C        0.44537042       0.92503623      -0.72711245
H       -2.73562296      -0.92534859      -1.09587382
H       -2.99779840      -0.90802494       0.65970839
H       -3.35306430       0.53245706      -0.31892868
H       -0.98831033      -0.74662427       1.83253075
H        3.39015437       0.32059938       0.57669174
H        2.80555516      -1.24630329       0.01897686
H        3.18574038       0.02892398      -1.16557040
H        0.12356001       1.65860816      -1.43718403
15
Frame=11 idx=007235 GeodesicLength=0.7560170382622255 rxn_smarts="[C:1]([n:2]1[c:3]([H:11])[n:4][c:5]([C:6]([H:12])([H:13])[H:14])[c:7]1[H:15])([H:8])([H:9])[H:10]>>[C:1](/[N:2]=[C:3](/[N:4]1[C:5]([C:6]([H:12])([H:13])[H:14])=[C:7]1[H:15])[H:11])([H:8])([H:9])[H:10]"
C       -2.65424071      -0.30904874      -0.20511476
N       -1.30162284       0.15795092      -0.02906280
C       -0.64894575      -0.05922523       1.07238592
N        0.60145967       0.45936018       1.10749109
C        1.37059706       0.29848037      -0.07499953
C        2.76233896      -0.17446087      -0.18206499
C        0.42320594       0.92435223      -0.70571887
H       -2.71561120      -0.91736859      -1.11003077
H       -2.99011550      -0.91280995       0.64446696
H       -3.33536158       0.53602372      -0.32564769
H       -0.98558662      -0.74868886       1.84478423
H        3.38930632       0.32394250       0.55898817
H        2.79692984      -1.24665325       0.02080341
H        3.15948371       0.02037804      -1.17766163
H        0.12816270       1.64776754      -1.43861873
15
Frame=12 idx=007235 GeodesicLength=0.8247782104263102 rxn_smarts="[C:1]([n:2]1[c:3]([H:11])[n:4][c:5]([C:6]([H:12])([H:13])[H:14])[c:7]1[H:15])([H:8])([H:9])[H:10]>>[C:1](/[N:2]=[C:3](/[N:4]1[C:5]([C:6]([H:12])([H:13])[H:14])=[C:7]1[H:15])[H:11])([H:8])([H:9])[H:10]"
C       -2.63991265      -0.30887071      -0.21388183
N       -1.28772804       0.15214307      -0.02255483
C       -0.64606900      -0.05665547       1.08900211
N        0.59863715       0.47871711       1.12014773
C        1.35989098       0.29730094      -0.06563691
C        2.74973341      -0.17632033      -0.18703525
C        0.40166748       0.92486017      -0.68416327
H       -2.69491084      -0.90930670      -1.12429802
H       -2.98174036      -0.91828489       0.62895317
H       -3.31797444       0.53893035      -0.33200118
H       -0.98305399      -0.74967354       1.85733113
H        3.38815676       0.32636863       0.54134566
H        2.78754695      -1.24724516       0.02200341
H        3.13301667       0.01188118      -1.18941352
H        0.13273991       1.63615535      -1.43979839
15
Frame=13 idx=007235 GeodesicLength=0.8935624432169021 rxn_smarts="[C:1]([n:2]1[c:3]([H:11])[n:4][c:5]([C:6]([H:12])([H:13])[H:14])[c:7]1[H:15])([H:8])([H:9])[H:10]>>[C:1](/[N:2]=[C:3](/[N:4]1[C:5]([C:6]([H:12])([H:13])[H:14])=[C:7]1[H:15])[H:11])([H:8])([H:9])[H:10]"
C       -2.62556285      -0.30874322      -0.22256975
N       -1.27394935       0.14619835      -0.01616735
C       -0.64310010      -0.05425811       1.10510976
N        0.59568138       0.49781722       1.13231414
C        1.34937989       0.29661396      -0.05628289
C        2.73704508      -0.17812584      -0.19193710
C        0.38071450       0.92610354      -0.66269128
H       -2.67421876      -0.90132927      -1.13831571
H       -2.97316169      -0.92368180       0.61355326
H       -3.30061063       0.54173192      -0.33820518
H       -0.98060798      -0.75018091       1.86985838
H        3.38672917       0.32831637       0.52389237
H        2.77786245      -1.24784677       0.02276182
H        3.10660375       0.00369931      -1.20072055
H        0.13719513       1.62368527      -1.44059992
15
Frame=14 idx=007235 GeodesicLength=0.9624088983661687 rxn_smarts="[C:1]([n:2]1[c:3]([H:11])[n:4][c:5]([C:6]([H:12])([H:13])[H:14])[c:7]1[H:15])([H:8])([H:9])[H:10]>>[C:1](/[N:2]=[C:3](/[N:4]1[C:5]([C:6]([H:12])([H:13])[H:14])=[C:7]1[H:15])[H:11])([H:8])([H:9])[H:10]"
C       -2.61101382      -0.30883933      -0.23126095
N       -1.26037544       0.14062451      -0.00971206
C       -0.64008666      -0.05156152       1.12088438
N        0.59264393       0.51692449       1.14402254
C        1.33899362       0.29640148      -0.04697344
C        2.72412541      -0.18010585      -0.19684529
C        0.36029443       0.92807722      -0.64137290
H       -2.65295848      -0.89328318      -1.15239792
H       -2.96391628      -0.92969685       0.59792501
H       -3.28356816       0.54391955      -0.34406521
H       -0.97832441      -0.74969638       1.88258536
H        3.38501005       0.32954422       0.50646017
H        2.76757313      -1.24867636       0.02313308
H        3.08005561      -0.00455188      -1.21171624
H        0.14154706       1.61091990      -1.44066655
15
Frame=15 idx=007235 GeodesicLength=1.0313055358595538 rxn_smarts="[C:1]([n:2]1[c:3]([H:11])[n:4][c:5]([C:6]([H:12])([H:13])[H:14])[c:7]1[H:15])([H:8])([H:9])[H:10]>>[C:1](/[N:2]=[C:3](/[N:4]1[C:5]([C:6]([H:12])([H:13])[H:14])=[C:7]1[H:15])[H:11])([H:8])([H:9])[H:10]"
C       -2.59637707      -0.30907559      -0.23991409
N       -1.24697305       0.13517288      -0.00332210
C       -0.63700829      -0.04874642       1.13622883
N        0.58950053       0.53596667       1.15518357
C        1.32876891       0.29653475      -0.03777603
C        2.71109526      -0.18217548      -0.20170931
C        0.34037104       0.93044651      -0.62039720
H       -2.63146832      -0.88521707      -1.16639521
H       -2.95421644      -0.93601643       0.58223541
H       -3.26674703       0.54573323      -0.34964163
H       -0.97616084      -0.74847039       1.89537054
H        3.38301439       0.33029306       0.48909908
H        2.75694462      -1.24963059       0.02326687
H        3.05352370      -0.01280151      -1.22235360
H        0.14573259       1.59798638      -1.43987513
15
Frame=16 idx=007235 GeodesicLength=1.1002537086068498 rxn_smarts="[C:1]([n:2]1[c:3]([H:11])[n:4][c:5]([C:6]([H:12])([H:13])[H:14])[c:7]1[H:15])([H:8])([H:9])[H:10]>>[C:1](/[N:2]=[C:3](/[N:4]1[C:5]([C:6]([H:12])([H:13])[H:14])=[C:7]1[H:15])[H:11])([H:8])([H:9])[H:10]"
C       -2.58167146      -0.30945173      -0.24852333
N       -1.23375456       0.12985410       0.00298833
C       -0.63386753      -0.04578497       1.15114123
N        0.58625088       0.55497429       1.16575419
C        1.31870885       0.29692979      -0.02873207
C        2.69798783      -0.18435230      -0.20651697
C        0.32090995       0.93302160      -0.59988069
H       -2.60978479      -0.87708845      -1.18032025
H       -2.94404458      -0.94268167       0.56647472
H       -3.25019043       0.54716123      -0.35488300
H       -0.97411913      -0.74649572       1.90819957
H        3.38074963       0.33061751       0.47180690
H        2.74605053      -1.25071475       0.02325070
H        3.02705407      -0.02110507      -1.23263431
H        0.14972073       1.58511615      -1.43812503
