14
Frame=0 idx=007292 GeodesicLength=0.0 rxn_smarts="[O:1]([C@@:2]1([H:9])[C:3]([H:10])([H:11])[N:4]([H:12])[C:5]([H:13])([H:14])[C:6]1=[O:7])[H:8]>>[O:1]=[C:2]([C:6]1([O:7][H:8])[C:3]([H:10])([H:11])[N:4]([H:12])[C:5]1([H:13])[H:14])[H:9]"
O        2.19717556      -0.17716282       0.98377159
C        0.94562198       0.01963557       1.00005099
C        0.13892634       1.12279635      -0.29604811
N       -1.25022668       0.81400892      -0.04628164
C       -1.23994108      -0.63328913      -0.23598298
C        0.20671458      -0.82972444       0.10084338
O        0.97113129      -1.63322167      -0.56009909
H        1.86621226      -1.41104399      -0.11573303
H        0.42178447       0.49312084       1.83459640
H        0.48538170       2.06803273       0.11395853
H        0.51027249       0.98003341      -1.31776671
H       -1.92130860       1.32053936      -0.60465127
H       -1.40583394      -0.95451853      -1.27269429
H       -1.92591040      -1.17920659       0.41603618
14
Frame=1 idx=007292 GeodesicLength=0.07938856467960317 rxn_smarts="[O:1]([C@@:2]1([H:9])[C:3]([H:10])([H:11])[N:4]([H:12])[C:5]([H:13])([H:14])[C:6]1=[O:7])[H:8]>>[O:1]=[C:2]([C:6]1([O:7][H:8])[C:3]([H:10])([H:11])[N:4]([H:12])[C:5]1([H:13])[H:14])[H:9]"
O        2.19581226      -0.19289735       0.99173773
C        0.94446644       0.01939508       1.00052471
C        0.13988217       1.12016036      -0.29945901
N       -1.25160806       0.81699670      -0.04850196
C       -1.24321780      -0.63099717      -0.23371195
C        0.20706408      -0.82618423       0.08989274
O        0.97341394      -1.63797942      -0.55852134
H        1.88318247      -1.39398387      -0.11293460
H        0.41774500       0.47939654       1.84095291
H        0.48482452       2.06764524       0.10746239
H        0.50649998       0.98705757      -1.32426206
H       -1.92005326       1.32237081      -0.61097986
H       -1.41515262      -0.95570515      -1.26834459
H       -1.92285911      -1.17527510       0.42614490
14
Frame=2 idx=007292 GeodesicLength=0.15888695805164374 rxn_smarts="[O:1]([C@@:2]1([H:9])[C:3]([H:10])([H:11])[N:4]([H:12])[C:5]([H:13])([H:14])[C:6]1=[O:7])[H:8]>>[O:1]=[C:2]([C:6]1([O:7][H:8])[C:3]([H:10])([H:11])[N:4]([H:12])[C:5]1([H:13])[H:14])[H:9]"
O        2.19458660      -0.20798026       0.99894873
C        0.94359402       0.01941335       1.00042816
C        0.14058994       1.11797526      -0.30300669
N       -1.25307183       0.81998928      -0.05056212
C       -1.24621397      -0.62864648      -0.23155999
C        0.20777591      -0.82228541       0.07827948
O        0.97581849      -1.64218627      -0.55782193
H        1.89969427      -1.38003515      -0.10692347
H        0.41398080       0.46518718       1.84689114
H        0.48382633       2.06767449       0.10104409
H        0.50223957       0.99495279      -1.33091373
H       -1.91919327       1.32411417      -0.61681832
H       -1.42445870      -0.95659911      -1.26409198
H       -1.91916816      -1.17157384       0.43610662
14
Frame=3 idx=007292 GeodesicLength=0.23868617820728122 rxn_smarts="[O:1]([C@@:2]1([H:9])[C:3]([H:10])([H:11])[N:4]([H:12])[C:5]([H:13])([H:14])[C:6]1=[O:7])[H:8]>>[O:1]=[C:2]([C:6]1([O:7][H:8])[C:3]([H:10])([H:11])[N:4]([H:12])[C:5]1([H:13])[H:14])[H:9]"
O        2.19345111      -0.22240302       1.00562124
C        0.94293563       0.01963643       0.99985434
C        0.14110447       1.11617636      -0.30669408
N       -1.25458989       0.82299539      -0.05249679
C       -1.24894937      -0.62624257      -0.22947898
C        0.20881270      -0.81807217       0.06608495
O        0.97815945      -1.64602998      -0.55790766
H        1.91597514      -1.36869391      -0.09824049
H        0.41040877       0.45049206       1.85243069
H        0.48246018       2.06806204       0.09467461
H        0.49757308       1.00358784      -1.33769188
H       -1.91866012       1.32578218      -0.62225408
H       -1.43378271      -0.95724285      -1.25987161
H       -1.91489845      -1.16804780       0.44596973
14
Frame=4 idx=007292 GeodesicLength=0.3183660516706345 rxn_smarts="[O:1]([C@@:2]1([H:9])[C:3]([H:10])([H:11])[N:4]([H:12])[C:5]([H:13])([H:14])[C:6]1=[O:7])[H:8]>>[O:1]=[C:2]([C:6]1([O:7][H:8])[C:3]([H:10])([H:11])[N:4]([H:12])[C:5]1([H:13])[H:14])[H:9]"
O        2.19269018      -0.23572478       1.01109132
C        0.94270869       0.02027248       0.99842141
C        0.14121613       1.11507333      -0.31056335
N       -1.25626950       0.82598977      -0.05416091
C       -1.25127195      -0.62377575      -0.22760734
C        0.21040027      -0.81328604       0.05288007
O        0.98070834      -1.64896255      -0.55955743
H        1.93150151      -1.36243019      -0.08439340
H        0.40733877       0.43526079       1.85733544
H        0.48038972       2.06910725       0.08844340
H        0.49211237       1.01355294      -1.34471255
H       -1.91876743       1.32733289      -0.62692509
H       -1.44307982      -0.95746778      -1.25584963
H       -1.90967729      -1.16494237       0.45559806
14
Frame=5 idx=007292 GeodesicLength=0.39797538245628067 rxn_smarts="[O:1]([C@@:2]1([H:9])[C:3]([H:10])([H:11])[N:4]([H:12])[C:5]([H:13])([H:14])[C:6]1=[O:7])[H:8]>>[O:1]=[C:2]([C:6]1([O:7][H:8])[C:3]([H:10])([H:11])[N:4]([H:12])[C:5]1([H:13])[H:14])[H:9]"
O        2.19202605      -0.24836874       1.01614908
C        0.94265791       0.02108444       0.99658660
C        0.14118068       1.11431468      -0.31457303
N       -1.25797633       0.82898897      -0.05571959
C       -1.25331627      -0.62127561      -0.22578161
C        0.21229325      -0.80820048       0.03916631
O        0.98308366      -1.65165885      -0.56190825
H        1.94670809      -1.35840311      -0.06823639
H        0.40445360       0.41956629       1.86182548
H        0.47799543       2.07047679       0.08224716
H        0.48629764       1.02416908      -1.35181698
H       -1.91915407       1.32880204      -0.63125051
H       -1.45236165      -0.95749517      -1.25181819
H       -1.90388799      -1.16200032       0.46512992
14
Frame=6 idx=007292 GeodesicLength=0.4777240867195011 rxn_smarts="[O:1]([C@@:2]1([H:9])[C:3]([H:10])([H:11])[N:4]([H:12])[C:5]([H:13])([H:14])[C:6]1=[O:7])[H:8]>>[O:1]=[C:2]([C:6]1([O:7][H:8])[C:3]([H:10])([H:11])[N:4]([H:12])[C:5]1([H:13])[H:14])[H:9]"
O        2.19124457      -0.26065631       1.02137778
C        0.94259471       0.02189508       0.99467097
C        0.14117457       1.11365054      -0.31869180
N       -1.25961868       0.83201041      -0.05729306
C       -1.25518501      -0.61875266      -0.22388890
C        0.21431697      -0.80301276       0.02528493
O        0.98500375      -1.65459087      -0.56436694
H        1.96200811      -1.35461033      -0.05178037
H        0.40151437       0.40344322       1.86606356
H        0.47554867       2.07192772       0.07601756
H        0.48042682       1.03496801      -1.35890575
H       -1.91956469       1.33021919      -0.63553261
H       -1.46165911      -0.95746910      -1.24763039
H       -1.89780504      -1.15902215       0.47467502
14
Frame=7 idx=007292 GeodesicLength=0.5575249087974515 rxn_smarts="[O:1]([C@@:2]1([H:9])[C:3]([H:10])([H:11])[N:4]([H:12])[C:5]([H:13])([H:14])[C:6]1=[O:7])[H:8]>>[O:1]=[C:2]([C:6]1([O:7][H:8])[C:3]([H:10])([H:11])[N:4]([H:12])[C:5]1([H:13])[H:14])[H:9]"
O        2.19030527      -0.27265065       1.02687949
C        0.94247358       0.02265420       0.99275777
C        0.14123944       1.11301624      -0.32290481
N       -1.26117734       0.83505524      -0.05890021
C       -1.25690812      -0.61621234      -0.22191240
C        0.21641548      -0.79778397       0.01134345
O        0.98638651      -1.65787705      -0.56676348
H        1.97750390      -1.35055890      -0.03551154
H        0.39848141       0.38692261       1.87008205
H        0.47311454       2.07339997       0.06974210
H        0.47458489       1.04582450      -1.36594338
H       -1.91994230       1.33159579      -0.63982572
H       -1.47095638      -0.95741327      -1.24326824
H       -1.89152089      -1.15597237       0.48422494
14
Frame=8 idx=007292 GeodesicLength=0.6366406642253213 rxn_smarts="[O:1]([C@@:2]1([H:9])[C:3]([H:10])([H:11])[N:4]([H:12])[C:5]([H:13])([H:14])[C:6]1=[O:7])[H:8]>>[O:1]=[C:2]([C:6]1([O:7][H:8])[C:3]([H:10])([H:11])[N:4]([H:12])[C:5]1([H:13])[H:14])[H:9]"
O        2.18978529      -0.28356877       1.03119298
C        0.94276461       0.02380835       0.99010355
C        0.14096602       1.11299363      -0.32729755
N       -1.26285021       0.83804666      -0.06024224
C       -1.25817898      -0.61365954      -0.22012859
C        0.21901135      -0.79202091      -0.00342541
O        0.98790328      -1.66039450      -0.57046848
H        1.99179202      -1.35090971      -0.01458423
H        0.39604246       0.36999784       1.87342642
H        0.47004114       2.07546329       0.06356540
H        0.46802883       1.05781994      -1.37314081
H       -1.92089171       1.33282157      -0.64339406
H       -1.48008457      -0.95703783      -1.23907258
H       -1.88432951      -1.15336002       0.49346559
14
Frame=9 idx=007292 GeodesicLength=0.7157996123089473 rxn_smarts="[O:1]([C@@:2]1([H:9])[C:3]([H:10])([H:11])[N:4]([H:12])[C:5]([H:13])([H:14])[C:6]1=[O:7])[H:8]>>[O:1]=[C:2]([C:6]1([O:7][H:8])[C:3]([H:10])([H:11])[N:4]([H:12])[C:5]1([H:13])[H:14])[H:9]"
O        2.18909771      -0.29423922       1.03585446
C        0.94295910       0.02485938       0.98753372
C        0.14080396       1.11294079      -0.33176676
N       -1.26441779       0.84105451      -0.06163306
C       -1.25931516      -0.61109955      -0.21825371
C        0.22163662      -0.78626818      -0.01815673
O        0.98881193      -1.66334630      -0.57400514
H        2.00625832      -1.35056688       0.00578656
H        0.39350334       0.35271074       1.87656860
H        0.46703715       2.07748780       0.05734434
H        0.46156381       1.06976756      -1.38024522
H       -1.92175100       1.33401099      -0.64702554
H       -1.48918198      -0.95666131      -1.23469091
H       -1.87700602      -1.15065035       0.50268939
14
Frame=10 idx=007292 GeodesicLength=0.7948787688601857 rxn_smarts="[O:1]([C@@:2]1([H:9])[C:3]([H:10])([H:11])[N:4]([H:12])[C:5]([H:13])([H:14])[C:6]1=[O:7])[H:8]>>[O:1]=[C:2]([C:6]1([O:7][H:8])[C:3]([H:10])([H:11])[N:4]([H:12])[C:5]1([H:13])[H:14])[H:9]"
O        2.18841293      -0.30441551       1.04042509
C        0.94318769       0.02593093       0.98483814
C        0.14063549       1.11301770      -0.33633432
N       -1.26593621       0.84405315      -0.06298459
C       -1.26023129      -0.60853626      -0.21636709
C        0.22440311      -0.78039141      -0.03305751
O        0.98928407      -1.66639569      -0.57778226
H        2.02052540      -1.35087167       0.02701005
H        0.39107179       0.33507814       1.87936764
H        0.46391868       2.07962986       0.05112044
H        0.45497591       1.08196411      -1.38730951
H       -1.92268940       1.33512938      -0.65050845
H       -1.49819807      -0.95620546      -1.23021795
H       -1.86936009      -1.14798726       0.51180031
14
Frame=11 idx=007292 GeodesicLength=0.8740097926617437 rxn_smarts="[O:1]([C@@:2]1([H:9])[C:3]([H:10])([H:11])[N:4]([H:12])[C:5]([H:13])([H:14])[C:6]1=[O:7])[H:8]>>[O:1]=[C:2]([C:6]1([O:7][H:8])[C:3]([H:10])([H:11])[N:4]([H:12])[C:5]1([H:13])[H:14])[H:9]"
O        2.18767033      -0.31417084       1.04507779
C        0.94337810       0.02694316       0.98212874
C        0.14051777       1.11313449      -0.34098120
N       -1.26737943       0.84705130      -0.06433141
C       -1.26097643      -0.60597005      -0.21443849
C        0.22723824      -0.77447561      -0.04800059
O        0.98919748      -1.66969145      -0.58163838
H        2.03482112      -1.35117355       0.04845126
H        0.38866384       0.31711275       1.88188183
H        0.46078089       2.08180043       0.04488027
H        0.44837420       1.09424609      -1.39429459
H       -1.92362056       1.33619820      -0.65393636
H       -1.50714825      -0.95570249      -1.22561749
H       -1.86151730      -1.14530242       0.52081860
14
Frame=12 idx=007292 GeodesicLength=0.9531432706933064 rxn_smarts="[O:1]([C@@:2]1([H:9])[C:3]([H:10])([H:11])[N:4]([H:12])[C:5]([H:13])([H:14])[C:6]1=[O:7])[H:8]>>[O:1]=[C:2]([C:6]1([O:7][H:8])[C:3]([H:10])([H:11])[N:4]([H:12])[C:5]1([H:13])[H:14])[H:9]"
O        2.18679921      -0.32358231       1.04996124
C        0.94346175       0.02782299       0.97951363
C        0.14049941       1.11320133      -0.34568206
N       -1.26872406       0.85005162      -0.06570111
C       -1.26160145      -0.60339990      -0.21244922
C        0.23006575      -0.76860406      -0.06285800
O        0.98844462      -1.67334231      -0.58540619
H        2.04938648      -1.35089531       0.06950139
H        0.38621107       0.29886320       1.88416664
H        0.45771169       2.08390697       0.03861967
H        0.44186084       1.10644983      -1.40115483
H       -1.92446573       1.33723438      -0.65738535
H       -1.51604071      -0.95517353      -1.22087035
H       -1.85360885      -1.14253289       0.52974453
14
Frame=13 idx=007292 GeodesicLength=1.0323246700188586 rxn_smarts="[O:1]([C@@:2]1([H:9])[C:3]([H:10])([H:11])[N:4]([H:12])[C:5]([H:13])([H:14])[C:6]1=[O:7])[H:8]>>[O:1]=[C:2]([C:6]1([O:7][H:8])[C:3]([H:10])([H:11])[N:4]([H:12])[C:5]1([H:13])[H:14])[H:9]"
O        2.18591769      -0.33249945       1.05485541
C        0.94350219       0.02862001       0.97688661
C        0.14052524       1.11329578      -0.35045464
N       -1.27000017       0.85304682      -0.06705495
C       -1.26206814      -0.60082856      -0.21042981
C        0.23294232      -0.76271734      -0.07773414
O        0.98711160      -1.67718521      -0.58934032
H        2.06401882      -1.35068464       0.09091713
H        0.38381285       0.28030472       1.88615866
H        0.45462429       2.08602696       0.03235050
H        0.43532525       1.11872745      -1.40792878
H       -1.92530501       1.33822616      -0.66076753
H       -1.52486522      -0.95458626      -1.21601098
H       -1.84554173      -1.13974645       0.53855283
14
Frame=14 idx=007292 GeodesicLength=1.111571625393033 rxn_smarts="[O:1]([C@@:2]1([H:9])[C:3]([H:10])([H:11])[N:4]([H:12])[C:5]([H:13])([H:14])[C:6]1=[O:7])[H:8]>>[O:1]=[C:2]([C:6]1([O:7][H:8])[C:3]([H:10])([H:11])[N:4]([H:12])[C:5]1([H:13])[H:14])[H:9]"
O        2.18497368      -0.34096548       1.05988729
C        0.94343869       0.02926813       0.97433220
C        0.14063421       1.11334517      -0.35527832
N       -1.27119053       0.85604312      -0.06841718
C       -1.26242446      -0.59825238      -0.20836479
C        0.23580293      -0.75688557      -0.09252992
O        0.98509871      -1.68131091      -0.59332370
H        2.07896237      -1.35008661       0.11222119
H        0.38140305       0.26146053       1.88790376
H        0.45159141       2.08808517       0.02607112
H        0.42885225       1.13094841      -1.41458065
H       -1.92607370       1.33919342      -0.66414741
H       -1.53364027      -0.95395453      -1.21102234
H       -1.83742833      -1.13688847       0.54724876
14
Frame=15 idx=007292 GeodesicLength=1.19085994744364 rxn_smarts="[O:1]([C@@:2]1([H:9])[C:3]([H:10])([H:11])[N:4]([H:12])[C:5]([H:13])([H:14])[C:6]1=[O:7])[H:8]>>[O:1]=[C:2]([C:6]1([O:7][H:8])[C:3]([H:10])([H:11])[N:4]([H:12])[C:5]1([H:13])[H:14])[H:9]"
O        2.18392111      -0.34902498       1.06517376
C        0.94321321       0.02969902       0.97192841
C        0.14086235       1.11327993      -0.36013287
N       -1.27228073       0.85904799      -0.06981053
C       -1.26272112      -0.59566652      -0.20624131
C        0.23858441      -0.75117918      -0.10715443
O        0.98231776      -1.68580468      -0.59724845
H        2.09446018      -1.34866462       0.13297315
H        0.37891621       0.24234917       1.88944952
H        0.44868312       2.09000874       0.01978220
H        0.42252494       1.14299032      -1.42107945
H       -1.92671174       1.34015880      -0.66758509
H       -1.54238856      -0.95328637      -1.20589247
H       -1.82938114      -1.13390762       0.55583755
14
Frame=16 idx=007292 GeodesicLength=1.2701979425290495 rxn_smarts="[O:1]([C@@:2]1([H:9])[C:3]([H:10])([H:11])[N:4]([H:12])[C:5]([H:13])([H:14])[C:6]1=[O:7])[H:8]>>[O:1]=[C:2]([C:6]1([O:7][H:8])[C:3]([H:10])([H:11])[N:4]([H:12])[C:5]1([H:13])[H:14])[H:9]"
O        2.18286975      -0.35653712       1.07050625
C        0.94288791       0.02996661       0.96957101
C        0.14115663       1.11317011      -0.36504071
N       -1.27329682       0.86205243      -0.07119710
C       -1.26292193      -0.59307426      -0.20408827
C        0.24133860      -0.74554029      -0.12170606
O        0.97886420      -1.69049539      -0.60135476
H        2.11030905      -1.34703661       0.15389941
H        0.37645003       0.22294609       1.89073280
H        0.44582141       2.09186674       0.01348593
H        0.41622897       1.15498949      -1.42746587
H       -1.92729706       1.34111004      -0.67098922
H       -1.55110139      -0.95255269      -1.20065272
H       -1.82130936      -1.13086515       0.56429930
