10
Frame=0 idx=005287 GeodesicLength=0.0 rxn_smarts="[c:1]1([H:7])[c:2]([H:8])[n:3][n:4][c:5]([H:9])[c:6]1[H:10]>>[C:1]1([H:7])=[C:2]([H:8])[C:5]([H:9])=[C:6]1[H:10].[N:3]#[N:4]"
C        0.45035942       0.96279353      -0.50866726
C        0.88283960      -0.39947910      -0.05288657
N        0.65103919      -1.85254860      -0.13710298
N       -0.55719148      -1.87576712       0.21143618
C       -0.86112871      -0.44042195       0.07045052
C       -0.49774008       0.95877917       0.47144702
H        0.86495176       1.69314391      -1.19471622
H        1.53538295      -0.31663455       0.82033995
H       -1.51600771      -0.42508623      -0.80501849
H       -0.95250493       1.69522094       1.12471785
10
Frame=1 idx=005287 GeodesicLength=0.12960959087665352 rxn_smarts="[c:1]1([H:7])[c:2]([H:8])[n:3][n:4][c:5]([H:9])[c:6]1[H:10]>>[C:1]1([H:7])=[C:2]([H:8])[C:5]([H:9])=[C:6]1[H:10].[N:3]#[N:4]"
C        0.45641532       0.97283181      -0.49603993
C        0.88141473      -0.39912460      -0.06641627
N        0.64277266      -1.88056173      -0.11818287
N       -0.56218051      -1.89569417       0.23079019
C       -0.86639411      -0.43559929       0.06864298
C       -0.50474512       0.96214231       0.46987535
H        0.89958004       1.72525856      -1.13866724
H        1.59324025      -0.32629769       0.75958003
H       -1.54335886      -0.43464314      -0.78914847
H       -0.99674439       1.71168796       1.07956622
10
Frame=2 idx=005287 GeodesicLength=0.25891932811348617 rxn_smarts="[c:1]1([H:7])[c:2]([H:8])[n:3][n:4][c:5]([H:9])[c:6]1[H:10]>>[C:1]1([H:7])=[C:2]([H:8])[C:5]([H:9])=[C:6]1[H:10].[N:3]#[N:4]"
C        0.46340962       0.98389802      -0.48125211
C        0.87981219      -0.39782739      -0.07880373
N        0.63490455      -1.90796714      -0.09600343
N       -0.56727144      -1.91517115       0.25141915
C       -0.87191400      -0.43011925       0.06515808
C       -0.51311657       0.96618616       0.46773034
H        0.93322514       1.75592298      -1.07990524
H        1.65087288      -0.33706759       0.69266177
H       -1.57009146      -0.44428298      -0.77445840
H       -1.03983090       1.72642833       1.03345357
10
Frame=3 idx=005287 GeodesicLength=0.38790125754436255 rxn_smarts="[c:1]1([H:7])[c:2]([H:8])[n:3][n:4][c:5]([H:9])[c:6]1[H:10]>>[C:1]1([H:7])=[C:2]([H:8])[C:5]([H:9])=[C:6]1[H:10].[N:3]#[N:4]"
C        0.47158244       0.99601654      -0.46371932
C        0.87816924      -0.39555319      -0.08967432
N        0.62753817      -1.93466409      -0.06964274
N       -0.57262394      -1.93409417       0.27332330
C       -0.87767390      -0.42396521       0.05953003
C       -0.52305047       0.97088534       0.46480948
H        0.96540735       1.78510270      -1.01894303
H        1.70792422      -0.34911275       0.61877828
H       -1.59583337      -0.45401315      -0.76172599
H       -1.08143974       1.73939797       0.98726429
10
Frame=4 idx=005287 GeodesicLength=0.5164163345421331 rxn_smarts="[c:1]1([H:7])[c:2]([H:8])[n:3][n:4][c:5]([H:9])[c:6]1[H:10]>>[C:1]1([H:7])=[C:2]([H:8])[C:5]([H:9])=[C:6]1[H:10].[N:3]#[N:4]"
C        0.48115175       1.00913393      -0.44272548
C        0.87666057      -0.39233058      -0.09868716
N        0.62078344      -1.96051308      -0.03790814
N       -0.57843626      -1.95237747       0.29647500
C       -0.88358877      -0.41715902       0.05135021
C       -0.53463048       0.97612761       0.46101858
H        0.99579929       1.81293000      -0.95601118
H        1.76397170      -0.36266963       0.53657540
H       -1.62018026      -0.46381463      -0.75168087
H       -1.12153097       1.75067287       0.94159365
10
Frame=5 idx=005287 GeodesicLength=0.6444717674861171 rxn_smarts="[c:1]1([H:7])[c:2]([H:8])[n:3][n:4][c:5]([H:9])[c:6]1[H:10]>>[C:1]1([H:7])=[C:2]([H:8])[C:5]([H:9])=[C:6]1[H:10].[N:3]#[N:4]"
C        0.49216619       1.02322800      -0.41747868
C        0.87544464      -0.38814711      -0.10568869
N        0.61480530      -1.98525379       0.00070786
N       -0.58480074      -1.96995480       0.32117876
C       -0.88954969      -0.40980375       0.04032510
C       -0.54797306       0.98176091       0.45632437
H        1.02470796       1.83980096      -0.89031942
H        1.81843345      -0.37829584       0.44352754
H       -1.64276833      -0.47387421      -0.74493736
H       -1.16046573       1.76053964       0.89636053
10
Frame=6 idx=005287 GeodesicLength=0.7720125811035744 rxn_smarts="[c:1]1([H:7])[c:2]([H:8])[n:3][n:4][c:5]([H:9])[c:6]1[H:10]>>[C:1]1([H:7])=[C:2]([H:8])[C:5]([H:9])=[C:6]1[H:10].[N:3]#[N:4]"
C        0.50462369       1.03823822      -0.38727512
C        0.87473470      -0.38297397      -0.11087656
N        0.60990489      -2.00836416       0.04837185
N       -0.59168414      -1.98670725       0.34791023
C       -0.89532539      -0.40204759       0.02610920
C       -0.56316288       0.98763256       0.45045823
H        1.05292821       1.86624680      -0.81999955
H        1.86983220      -0.39659860       0.33612639
H       -1.66324805      -0.48459632      -0.74203598
H       -1.19860322       1.76917030       0.85121131
10
Frame=7 idx=005287 GeodesicLength=0.8986465958512392 rxn_smarts="[c:1]1([H:7])[c:2]([H:8])[n:3][n:4][c:5]([H:9])[c:6]1[H:10]>>[C:1]1([H:7])=[C:2]([H:8])[C:5]([H:9])=[C:6]1[H:10].[N:3]#[N:4]"
C        0.51862850       1.05408344      -0.35129312
C        0.87490356      -0.37670859      -0.11485229
N        0.60667927      -2.02881857       0.10726088
N       -0.59858770      -2.00247442       0.37695774
C       -0.90042464      -0.39408141       0.00841830
C       -0.58014900       0.99362384       0.44293717
H        1.08132192       1.89253152      -0.74285673
H        1.91487869      -0.41838760       0.21105906
H       -1.68119366      -0.49651797      -0.74322295
H       -1.23605694       1.77674975       0.80559194
10
Frame=8 idx=005287 GeodesicLength=1.023728790287126 rxn_smarts="[c:1]1([H:7])[c:2]([H:8])[n:3][n:4][c:5]([H:9])[c:6]1[H:10]>>[C:1]1([H:7])=[C:2]([H:8])[C:5]([H:9])=[C:6]1[H:10].[N:3]#[N:4]"
C        0.53436578       1.07048439      -0.30901788
C        0.87643007      -0.36932627      -0.11948903
N        0.60602033      -2.04507681       0.17837244
N       -0.60420257      -2.01719305       0.40823278
C       -0.90410912      -0.38617336      -0.01268716
C       -0.59837625       0.99963730       0.43307300
H        1.11090670       1.91852014      -0.65651901
H        1.94800681      -0.44411269       0.06734695
H       -1.69652962      -0.51027014      -0.74768187
H       -1.27251211       1.78351050       0.75836978
10
Frame=9 idx=005287 GeodesicLength=1.1472975401417669 rxn_smarts="[c:1]1([H:7])[c:2]([H:8])[n:3][n:4][c:5]([H:9])[c:6]1[H:10]>>[C:1]1([H:7])=[C:2]([H:8])[C:5]([H:9])=[C:6]1[H:10].[N:3]#[N:4]"
C        0.55195454       1.08673773      -0.26091713
C        0.87980163      -0.36089886      -0.12708331
N        0.60889747      -2.05612892       0.25742121
N       -0.60637260      -2.03161348       0.44004134
C       -0.90581684      -0.37859307      -0.03607461
C       -0.61658789       1.00585813       0.42019501
H        1.14182611       1.94288371      -0.56220792
H        1.96331217      -0.47249480      -0.08746979
H       -1.71043751      -0.52599195      -0.75234948
H       -1.30657709       1.79024151       0.70844469
10
Frame=10 idx=005287 GeodesicLength=1.2699227798407149 rxn_smarts="[c:1]1([H:7])[c:2]([H:8])[n:3][n:4][c:5]([H:9])[c:6]1[H:10]>>[C:1]1([H:7])=[C:2]([H:8])[C:5]([H:9])=[C:6]1[H:10].[N:3]#[N:4]"
C        0.57094208       1.10164829      -0.20813721
C        0.88461675      -0.35167549      -0.14017201
N        0.61562262      -2.06202856       0.33736374
N       -0.60321730      -2.04658602       0.47098481
C       -0.90574886      -0.37147438      -0.06006009
C       -0.63350015       1.01249150       0.40374517
H        1.17393563       1.96373201      -0.46158448
H        1.95891948      -0.50059212      -0.24273392
H       -1.72487920      -0.54350844      -0.75316464
H       -1.33669105       1.79799321       0.65375862
10
Frame=11 idx=005287 GeodesicLength=1.3921623659848188 rxn_smarts="[c:1]1([H:7])[c:2]([H:8])[n:3][n:4][c:5]([H:9])[c:6]1[H:10]>>[C:1]1([H:7])=[C:2]([H:8])[C:5]([H:9])=[C:6]1[H:10].[N:3]#[N:4]"
C        0.59018800       1.11365295      -0.15290151
C        0.88966820      -0.34198321      -0.16093220
N        0.62544446      -2.06516846       0.40785402
N       -0.59417656      -2.06238083       0.50103509
C       -0.90508273      -0.36468448      -0.08310644
C       -0.64810925       1.01978468       0.38360488
H        1.20562089       1.97903487      -0.35912166
H        1.93979813      -0.52396709      -0.38384212
H       -1.74243560      -0.56220229      -0.74618928
H       -1.36091552       1.80791385       0.59359923
10
Frame=12 idx=005287 GeodesicLength=1.5144752783525148 rxn_smarts="[c:1]1([H:7])[c:2]([H:8])[n:3][n:4][c:5]([H:9])[c:6]1[H:10]>>[C:1]1([H:7])=[C:2]([H:8])[C:5]([H:9])=[C:6]1[H:10].[N:3]#[N:4]"
C        0.60903635       1.12179416      -0.09407113
C        0.89422636      -0.33162841      -0.18708098
N        0.63731286      -2.06976212       0.46149225
N       -0.58082912      -2.07800135       0.53354774
C       -0.90497916      -0.35791624      -0.10461642
C       -0.66076254       1.02824474       0.36032762
H        1.23481831       1.98817972      -0.25894329
H        1.91331914      -0.54022136      -0.50665528
H       -1.76290127      -0.58176054      -0.73143473
H       -1.37924093       1.82107140       0.52743421
10
Frame=13 idx=005287 GeodesicLength=1.6366282311307299 rxn_smarts="[c:1]1([H:7])[c:2]([H:8])[n:3][n:4][c:5]([H:9])[c:6]1[H:10]>>[C:1]1([H:7])=[C:2]([H:8])[C:5]([H:9])=[C:6]1[H:10].[N:3]#[N:4]"
C        0.62679918       1.12530790      -0.02900113
C        0.89814014      -0.32001141      -0.21499753
N        0.65093572      -2.07752967       0.50028755
N       -0.56458381      -2.09347822       0.56831639
C       -0.90578504      -0.35092758      -0.12434947
C       -0.67174508       1.03797604       0.33475058
H        1.25986279       1.99136653      -0.16291479
H        1.88266446      -0.54915595      -0.61600910
H       -1.78463354      -0.60121577      -0.71041471
H       -1.39165481       1.83766813       0.45433221
10
Frame=14 idx=005287 GeodesicLength=1.75842306713431 rxn_smarts="[c:1]1([H:7])[c:2]([H:8])[n:3][n:4][c:5]([H:9])[c:6]1[H:10]>>[C:1]1([H:7])=[C:2]([H:8])[C:5]([H:9])=[C:6]1[H:10].[N:3]#[N:4]"
C        0.64177722       1.12355572       0.04079595
C        0.90109505      -0.30656595      -0.24339927
N        0.66649368      -2.08842103       0.52810727
N       -0.54567749      -2.10945853       0.60390726
C       -0.90789635      -0.34376706      -0.14196118
C       -0.68085288       1.04895421       0.30687490
H        1.28054619       1.98852216      -0.06902328
H        1.84895878      -0.55046642      -0.71555960
H       -1.80736200      -0.61991033      -0.68310540
H       -1.39708221       1.85755725       0.37336335
10
Frame=15 idx=005287 GeodesicLength=1.8802638013386779 rxn_smarts="[c:1]1([H:7])[c:2]([H:8])[n:3][n:4][c:5]([H:9])[c:6]1[H:10]>>[C:1]1([H:7])=[C:2]([H:8])[C:5]([H:9])=[C:6]1[H:10].[N:3]#[N:4]"
C        0.65206495       1.11732964       0.10888666
C        0.90324154      -0.29107499      -0.27175247
N        0.68382156      -2.10186484       0.54859619
N       -0.52444349      -2.12629374       0.63962619
C       -0.91160117      -0.33652670      -0.15833436
C       -0.68792930       1.06090860       0.27666540
H        1.29785579       1.98002778       0.02647649
H        1.81342805      -0.54454195      -0.80698930
H       -1.83151166      -0.63771411      -0.64926743
H       -1.39492626       1.87975029       0.28609262
10
Frame=16 idx=005287 GeodesicLength=2.00178211214008 rxn_smarts="[c:1]1([H:7])[c:2]([H:8])[n:3][n:4][c:5]([H:9])[c:6]1[H:10]>>[C:1]1([H:7])=[C:2]([H:8])[C:5]([H:9])=[C:6]1[H:10].[N:3]#[N:4]"
C        0.65733912       1.10789932       0.17205445
C        0.90543831      -0.27370353      -0.29834066
N        0.70162783      -2.11703200       0.56588689
N       -0.50235810      -2.14424215       0.67327342
C       -0.91622479      -0.32881815      -0.17566662
C       -0.69269619       1.07280382       0.24640142
H        1.31033305       1.96739276       0.11901311
H        1.77753355      -0.53303472      -0.88964786
H       -1.85575640      -0.65327878      -0.61136944
H       -1.38523637       1.90201345       0.19839529
