17
Frame=0 idx=007399 GeodesicLength=0.0 rxn_smarts="[C:1]([C@@:2]1([H:11])[O:3][C:4]([H:12])([H:13])[C:5]([H:14])([H:15])[C@:6]1([O:7][H:17])[H:16])([H:8])([H:9])[H:10]>>[C:1]([C@@:2]([O+:3]=[C-:4][H:12])([C@@:6]([C:5]([H:13])([H:14])[H:15])([O:7][H:17])[H:16])[H:11])([H:8])([H:9])[H:10]"
C        2.07664642      -0.12551600      -0.45290980
C        0.74689630       0.33822845       0.08267036
O        0.02331820       1.02614259      -0.92002990
C       -1.03665895       1.66780010      -0.39209756
C       -1.56032549      -0.16888360       0.81984669
C       -0.23473653      -0.79980630       0.48881973
O       -0.33345969      -1.76207313      -0.54050078
H        2.69456418       0.73005397      -0.72566354
H        1.94606898      -0.76286170      -1.32629023
H        2.60146410      -0.70079155       0.31119018
H        0.87982428       1.00665583       0.94288949
H       -1.84174698       1.66453312      -1.14175407
H       -1.38808840       1.17688036       0.67660232
H       -1.77068160      -0.07495989       1.88548179
H       -2.40508811      -0.59228491       0.28766881
H        0.18448047      -1.32187891       1.35110333
H       -0.58247721      -1.30123847      -1.34702687
17
Frame=1 idx=007399 GeodesicLength=0.06622227091916975 rxn_smarts="[C:1]([C@@:2]1([H:11])[O:3][C:4]([H:12])([H:13])[C:5]([H:14])([H:15])[C@:6]1([O:7][H:17])[H:16])([H:8])([H:9])[H:10]>>[C:1]([C@@:2]([O+:3]=[C-:4][H:12])([C@@:6]([C:5]([H:13])([H:14])[H:15])([O:7][H:17])[H:16])[H:11])([H:8])([H:9])[H:10]"
C        2.07599417      -0.12537366      -0.45599387
C        0.74671587       0.33626366       0.08239786
O        0.02195556       1.02486041      -0.92110665
C       -1.03878657       1.66581108      -0.39385621
C       -1.55966210      -0.16478696       0.81628426
C       -0.23287226      -0.79998299       0.49177156
O       -0.33005536      -1.76802883      -0.53227341
H        2.69117661       0.73117976      -0.73189662
H        1.94461000      -0.76456771      -1.32793264
H        2.60397544      -0.69842797       0.30762546
H        0.88233734       1.00590889       0.94128519
H       -1.83674894       1.67682490      -1.15096185
H       -1.39313942       1.19031307       0.70319380
H       -1.77954057      -0.09682654       1.88185638
H       -2.40139927      -0.58261839       0.27422951
H        0.18564118      -1.31793361       1.35686937
H       -0.58020168      -1.31261512      -1.34149215
17
Frame=2 idx=007399 GeodesicLength=0.1324688690507359 rxn_smarts="[C:1]([C@@:2]1([H:11])[O:3][C:4]([H:12])([H:13])[C:5]([H:14])([H:15])[C@:6]1([O:7][H:17])[H:16])([H:8])([H:9])[H:10]>>[C:1]([C@@:2]([O+:3]=[C-:4][H:12])([C@@:6]([C:5]([H:13])([H:14])[H:15])([O:7][H:17])[H:16])[H:11])([H:8])([H:9])[H:10]"
C        2.07531678      -0.12522710      -0.45909477
C        0.74653104       0.33431582       0.08213018
O        0.02060514       1.02363885      -0.92218036
C       -1.04102035       1.66371658      -0.39558120
C       -1.55890145      -0.16065688       0.81290388
C       -0.23097873      -0.80017763       0.49476437
O       -0.32670209      -1.77394053      -0.52400765
H        2.68775748       0.73229903      -0.73816551
H        1.94309961      -0.76629541      -1.32957583
H        2.60647832      -0.69603683       0.30403934
H        0.88480569       1.00520125       0.93967762
H       -1.83132098       1.68952894      -1.16029670
H       -1.39855275       1.20320630       0.72975165
H       -1.78840124      -0.11854610       1.87769061
H       -2.39749013      -0.57309722       0.26113666
H        0.18686108      -1.31399891       1.36264565
H       -0.57808741      -1.32393018      -1.33583796
17
Frame=3 idx=007399 GeodesicLength=0.19865139445204127 rxn_smarts="[C:1]([C@@:2]1([H:11])[O:3][C:4]([H:12])([H:13])[C:5]([H:14])([H:15])[C@:6]1([O:7][H:17])[H:16])([H:8])([H:9])[H:10]>>[C:1]([C@@:2]([O+:3]=[C-:4][H:12])([C@@:6]([C:5]([H:13])([H:14])[H:15])([O:7][H:17])[H:16])[H:11])([H:8])([H:9])[H:10]"
C        2.07461317      -0.12508389      -0.46220097
C        0.74633767       0.33237644       0.08186001
O        0.01926248       1.02245030      -0.92324556
C       -1.04336496       1.66149799      -0.39730602
C       -1.55804207      -0.15648936       0.80969382
C       -0.22905193      -0.80037139       0.49777745
O       -0.32339039      -1.77976908      -0.51570584
H        2.68430524       0.73338650      -0.74443357
H        1.94154437      -0.76802831      -1.33119875
H        2.60896712      -0.69362957       0.30042402
H        0.88721518       1.00451416       0.93804049
H       -1.82548161       1.70257525      -1.16970953
H       -1.40434462       1.21555541       0.75630823
H       -1.79721938      -0.14007823       1.87296407
H       -2.39336591      -0.56369945       0.24839037
H        0.18814801      -1.31005567       1.36839096
H       -0.57613240      -1.33515109      -1.33004919
17
Frame=4 idx=007399 GeodesicLength=0.26480249024308694 rxn_smarts="[C:1]([C@@:2]1([H:11])[O:3][C:4]([H:12])([H:13])[C:5]([H:14])([H:15])[C@:6]1([O:7][H:17])[H:16])([H:8])([H:9])[H:10]>>[C:1]([C@@:2]([O+:3]=[C-:4][H:12])([C@@:6]([C:5]([H:13])([H:14])[H:15])([O:7][H:17])[H:16])[H:11])([H:8])([H:9])[H:10]"
C        2.07387999      -0.12494646      -0.46533090
C        0.74613518       0.33044661       0.08157480
O        0.01790979       1.02126770      -0.92432015
C       -1.04579443       1.65918112      -0.39902482
C       -1.55710089      -0.15228281       0.80662370
C       -0.22709109      -0.80055245       0.50082681
O       -0.32009570      -1.78554351      -0.50731551
H        2.68079612       0.73443315      -0.75078355
H        1.93994130      -0.76981430      -1.33278520
H        2.61145673      -0.69116058       0.29678092
H        0.88957644       1.00386258       0.93634755
H       -1.81921449       1.71605532      -1.17913658
H       -1.41050514       1.22737359       0.78295416
H       -1.80607148      -0.16152750       1.86763825
H       -2.38902330      -0.55439829       0.23590231
H        0.18950008      -1.30605478       1.37414167
H       -0.57429911      -1.34633938      -1.32409346
17
Frame=5 idx=007399 GeodesicLength=0.33098660218667275 rxn_smarts="[C:1]([C@@:2]1([H:11])[O:3][C:4]([H:12])([H:13])[C:5]([H:14])([H:15])[C@:6]1([O:7][H:17])[H:16])([H:8])([H:9])[H:10]>>[C:1]([C@@:2]([O+:3]=[C-:4][H:12])([C@@:6]([C:5]([H:13])([H:14])[H:15])([O:7][H:17])[H:16])[H:11])([H:8])([H:9])[H:10]"
C        2.07312205      -0.12480893      -0.46848360
C        0.74592602       0.32853827       0.08127429
O        0.01655860       1.02010408      -0.92543704
C       -1.04829558       1.65679959      -0.40078964
C       -1.55608514      -0.14805137       0.80370806
C       -0.22510419      -0.80073469       0.50391402
O       -0.31683007      -1.79129618      -0.49885804
H        2.67724670       0.73546512      -0.75720349
H        1.93829622      -0.77165167      -1.33435963
H        2.61394000      -0.68864271       0.29312711
H        0.89188884       1.00327567       0.93461548
H       -1.81251548       1.72995413      -1.18858882
H       -1.41704366       1.23867964       0.80974170
H       -1.81492819      -0.18286897       1.86175645
H       -2.38447988      -0.54521813       0.22367480
H        0.19090478      -1.30202387       1.37991732
H       -0.57260102      -1.35751996      -1.31800896
17
Frame=6 idx=007399 GeodesicLength=0.3971740624851308 rxn_smarts="[C:1]([C@@:2]1([H:11])[O:3][C:4]([H:12])([H:13])[C:5]([H:14])([H:15])[C@:6]1([O:7][H:17])[H:16])([H:8])([H:9])[H:10]>>[C:1]([C@@:2]([O+:3]=[C-:4][H:12])([C@@:6]([C:5]([H:13])([H:14])[H:15])([O:7][H:17])[H:16])[H:11])([H:8])([H:9])[H:10]"
C        2.07233930      -0.12467561      -0.47165720
C        0.74570854       0.32664944       0.08095064
O        0.01520508       1.01894042      -0.92660270
C       -1.05086537       1.65434850      -0.40262315
C       -1.55499830      -0.14378904       0.80093499
C       -0.22309026      -0.80090505       0.50703197
O       -0.31358587      -1.79701365      -0.49032468
H        2.67365336       0.73646785      -0.76369570
H        1.93661379      -0.77354643      -1.33590704
H        2.61641705      -0.68606968       0.28946252
H        0.89414773       1.00275244       0.93282376
H       -1.80538796       1.74425428      -1.19802978
H       -1.42396710       1.24946742       0.83672393
H       -1.82378268      -0.20410724       1.85529799
H       -2.37973814      -0.53614196       0.21169112
H        0.19236313      -1.29794209       1.38570597
H       -0.57103230      -1.36868959      -1.31178265
17
Frame=7 idx=007399 GeodesicLength=0.4633652226356769 rxn_smarts="[C:1]([C@@:2]1([H:11])[O:3][C:4]([H:12])([H:13])[C:5]([H:14])([H:15])[C@:6]1([O:7][H:17])[H:16])([H:8])([H:9])[H:10]>>[C:1]([C@@:2]([O+:3]=[C-:4][H:12])([C@@:6]([C:5]([H:13])([H:14])[H:15])([O:7][H:17])[H:16])[H:11])([H:8])([H:9])[H:10]"
C        2.07153323      -0.12454792      -0.47485112
C        0.74548237       0.32478239       0.08059766
O        0.01384960       1.01776688      -0.92783150
C       -1.05349844       1.65183207      -0.40455350
C       -1.55384509      -0.13949299       0.79829935
C       -0.22105101      -0.80105743       0.51017715
O       -0.31036121      -1.80269568      -0.48171318
H        2.67001764       0.73743763      -0.77026375
H        1.93489912      -0.77550587      -1.33742216
H        2.61888701      -0.68343721       0.28579253
H        0.89635036       1.00230150       0.93096122
H       -1.79783113       1.75894500      -1.20743903
H       -1.43128170       1.25973327       0.86395774
H       -1.83262671      -0.22524474       1.84825727
H       -2.37480383      -0.52716281       0.19993919
H        0.19387182      -1.29380025       1.39150623
H       -0.56959203      -1.37985383      -1.30541410
17
Frame=8 idx=007399 GeodesicLength=0.5295520730233191 rxn_smarts="[C:1]([C@@:2]1([H:11])[O:3][C:4]([H:12])([H:13])[C:5]([H:14])([H:15])[C@:6]1([O:7][H:17])[H:16])([H:8])([H:9])[H:10]>>[C:1]([C@@:2]([O+:3]=[C-:4][H:12])([C@@:6]([C:5]([H:13])([H:14])[H:15])([O:7][H:17])[H:16])[H:11])([H:8])([H:9])[H:10]"
C        2.07070496      -0.12442782      -0.47806368
C        0.74524680       0.32293837       0.08020931
O        0.01249223       1.01657284      -0.92913516
C       -1.05619071       1.64925178      -0.40660773
C       -1.55262959      -0.13515991       0.79579455
C       -0.21898766      -0.80118476       0.51334431
O       -0.30715386      -1.80833803      -0.47302191
H        2.66634014       0.73836825      -0.77690943
H        1.93315724      -0.77753597      -1.33889720
H        2.62134920      -0.68074106       0.28212180
H        0.89849306       1.00192841       0.92901585
H       -1.78984433       1.77401183      -1.21679449
H       -1.43899691       1.26946529       0.89149796
H       -1.84144675      -0.24627350       1.84062535
H       -2.36968247      -0.51827325       0.18840881
H        0.19542844      -1.28958831       1.39731288
H       -0.56827979      -1.39101416      -1.29890122
17
Frame=9 idx=007399 GeodesicLength=0.5957263956488118 rxn_smarts="[C:1]([C@@:2]1([H:11])[O:3][C:4]([H:12])([H:13])[C:5]([H:14])([H:15])[C@:6]1([O:7][H:17])[H:16])([H:8])([H:9])[H:10]>>[C:1]([C@@:2]([O+:3]=[C-:4][H:12])([C@@:6]([C:5]([H:13])([H:14])[H:15])([O:7][H:17])[H:16])[H:11])([H:8])([H:9])[H:10]"
C        2.06986074      -0.12431658      -0.48128311
C        0.74500247       0.32112135       0.07978050
O        0.01114327       1.01535522      -0.93052988
C       -1.05894705       1.64659660      -0.40883111
C       -1.55134935      -0.13077913       0.79342788
C       -0.21690368      -0.80128148       0.51651892
O       -0.30397759      -1.81392139      -0.46427783
H        2.66263582       0.73925622      -0.78360763
H        1.93140175      -0.77963677      -1.34032146
H        2.62379760      -0.67798571       0.27846792
H        0.90056743       1.00164241       0.92697923
H       -1.78144104       1.78939000      -1.22610202
H       -1.44711445       1.27865887       0.91939494
H       -1.85020125      -0.26717201       1.83241767
H       -2.36438651      -0.50946923       0.17712643
H        0.19702965      -1.28531738       1.40310147
H       -0.56711781      -1.40214100      -1.29226193
17
Frame=10 idx=007399 GeodesicLength=0.6618957354175301 rxn_smarts="[C:1]([C@@:2]1([H:11])[O:3][C:4]([H:12])([H:13])[C:5]([H:14])([H:15])[C@:6]1([O:7][H:17])[H:16])([H:8])([H:9])[H:10]>>[C:1]([C@@:2]([O+:3]=[C-:4][H:12])([C@@:6]([C:5]([H:13])([H:14])[H:15])([O:7][H:17])[H:16])[H:11])([H:8])([H:9])[H:10]"
C        2.06900286      -0.12421463      -0.48450861
C        0.74474929       0.31933482       0.07930585
O        0.00980536       1.01410834      -0.93203170
C       -1.06176267       1.64387135      -0.41125306
C       -1.55000895      -0.12634712       0.79119575
C       -0.21480174      -0.80134397       0.51969752
O       -0.30083307      -1.81944838      -0.45548298
H        2.65890830       0.74010087      -0.79036171
H        1.92963871      -0.78181524      -1.34169210
H        2.62623131      -0.67516748       0.27483843
H        0.90257044       1.00145414       0.92484395
H       -1.77261822       1.80506951      -1.23535246
H       -1.45564364       1.28729676       0.94771084
H       -1.85887677      -0.28792809       1.82363420
H       -2.35892364      -0.50074738       0.16608450
H        0.19867052      -1.28098333       1.40887237
H       -0.56610809      -1.41324017      -1.28550078
17
Frame=11 idx=007399 GeodesicLength=0.7280570212202391 rxn_smarts="[C:1]([C@@:2]1([H:11])[O:3][C:4]([H:12])([H:13])[C:5]([H:14])([H:15])[C@:6]1([O:7][H:17])[H:16])([H:8])([H:9])[H:10]>>[C:1]([C@@:2]([O+:3]=[C-:4][H:12])([C@@:6]([C:5]([H:13])([H:14])[H:15])([O:7][H:17])[H:16])[H:11])([H:8])([H:9])[H:10]"
C        2.06813314      -0.12412354      -0.48773881
C        0.74448681       0.31758099       0.07877888
O        0.00847968       1.01282292      -0.93365468
C       -1.06463525       1.64107413      -0.41390115
C       -1.54861196      -0.12185659       0.78909224
C       -0.21268361      -0.80136508       0.52287565
O       -0.29771980      -1.82491528      -0.44663627
H        2.65515958       0.74089712      -0.79717469
H        1.92787380      -0.78407832      -1.34300193
H        2.62864998      -0.67228143       0.27123931
H        0.90449878       1.00137125       0.92259789
H       -1.76337337       1.82103989      -1.24453521
H       -1.46459200       1.29535511       0.97651028
H       -1.86746148      -0.30853273       1.81426788
H       -2.35329975      -0.49209932       0.15527480
H        0.20034787      -1.27657641       1.41462205
H       -0.56525241      -1.42431270      -1.27861625
17
Frame=12 idx=007399 GeodesicLength=0.7942105658337175 rxn_smarts="[C:1]([C@@:2]1([H:11])[O:3][C:4]([H:12])([H:13])[C:5]([H:14])([H:15])[C@:6]1([O:7][H:17])[H:16])([H:8])([H:9])[H:10]>>[C:1]([C@@:2]([O+:3]=[C-:4][H:12])([C@@:6]([C:5]([H:13])([H:14])[H:15])([O:7][H:17])[H:16])[H:11])([H:8])([H:9])[H:10]"
C        2.06725365      -0.12404454      -0.49097244
C        0.74421458       0.31586276       0.07819310
O        0.00716817       1.01149079      -0.93541423
C       -1.06756274       1.63820323      -0.41680455
C       -1.54716199      -0.11729949       0.78711215
C       -0.21055148      -0.80133811       0.52604909
O       -0.29463818      -1.83031938      -0.43773742
H        2.65139231       0.74164085      -0.80405004
H        1.92611308      -0.78643337      -1.34424442
H        2.63105309      -0.66932250       0.26767746
H        0.90634885       1.00140295       0.92022956
H       -1.75370213       1.83729184      -1.25364381
H       -1.47396759       1.30280448       1.00586217
H       -1.87594289      -0.32897430       1.80431321
H       -2.34752104      -0.48351724       0.14469025
H        0.20205792      -1.27208792       1.42034789
H       -0.56455362      -1.43536004      -1.27160796
17
Frame=13 idx=007399 GeodesicLength=0.8603572061479584 rxn_smarts="[C:1]([C@@:2]1([H:11])[O:3][C:4]([H:12])([H:13])[C:5]([H:14])([H:15])[C@:6]1([O:7][H:17])[H:16])([H:8])([H:9])[H:10]>>[C:1]([C@@:2]([O+:3]=[C-:4][H:12])([C@@:6]([C:5]([H:13])([H:14])[H:15])([O:7][H:17])[H:16])[H:11])([H:8])([H:9])[H:10]"
C        2.06636649      -0.12397880      -0.49420827
C        0.74393212       0.31418337       0.07754169
O        0.00587303       1.01010377      -0.93732660
C       -1.07054355       1.63525613      -0.41999353
C       -1.54566261      -0.11266653       0.78525012
C       -0.20840774      -0.80125585       0.52921372
O       -0.29158900      -1.83565770      -0.42878577
H        2.64760911       0.74232776      -0.81099215
H        1.92436275      -0.78888838      -1.34541263
H        2.63344031      -0.66628481       0.26416008
H        0.90811684       1.00155912       0.91772684
H       -1.74359823       1.85381750      -1.26267429
H       -1.48377857       1.30960836       1.03584024
H       -1.88430881      -0.34923922       1.79376421
H       -2.34159360      -0.47499274       0.13432388
H        0.20379666      -1.26750841       1.42604750
H       -0.56401520      -1.44638356      -1.26447503
17
Frame=14 idx=007399 GeodesicLength=0.9264976649938367 rxn_smarts="[C:1]([C@@:2]1([H:11])[O:3][C:4]([H:12])([H:13])[C:5]([H:14])([H:15])[C@:6]1([O:7][H:17])[H:16])([H:8])([H:9])[H:10]>>[C:1]([C@@:2]([O+:3]=[C-:4][H:12])([C@@:6]([C:5]([H:13])([H:14])[H:15])([O:7][H:17])[H:16])[H:11])([H:8])([H:9])[H:10]"
C        2.06547397      -0.12392747      -0.49744477
C        0.74363880       0.31254637       0.07681740
O        0.00459684       1.00865356      -0.93940913
C       -1.07357664       1.63222917      -0.42350039
C       -1.54411724      -0.10794698       0.78350077
C       -0.20625508      -0.80111059       0.53236503
O       -0.28857381      -1.84092641      -0.41978108
H        2.64381306       0.74295328      -0.81800521
H        1.92262956      -0.79145159      -1.34649887
H        2.63581117      -0.66316204       0.26069520
H        0.90979831       1.00185042       0.91507682
H       -1.73305396       1.87060925      -1.27162531
H       -1.49403369       1.31572243       1.06652305
H       -1.89254555      -0.36931067       1.78261534
H       -2.33552375      -0.46651693       0.12416984
H        0.20555989      -1.26282813       1.43171785
H       -0.56364188      -1.45738367      -1.25721655
17
Frame=15 idx=007399 GeodesicLength=0.9926329639788116 rxn_smarts="[C:1]([C@@:2]1([H:11])[O:3][C:4]([H:12])([H:13])[C:5]([H:14])([H:15])[C@:6]1([O:7][H:17])[H:16])([H:8])([H:9])[H:10]>>[C:1]([C@@:2]([O+:3]=[C-:4][H:12])([C@@:6]([C:5]([H:13])([H:14])[H:15])([O:7][H:17])[H:16])[H:11])([H:8])([H:9])[H:10]"
C        2.06457842      -0.12389161      -0.50068045
C        0.74333389       0.31095580       0.07601246
O        0.00334241       1.00713157      -0.94168029
C       -1.07666139       1.62911780      -0.42735925
C       -1.54252931      -0.10312845       0.78185841
C       -0.20409644      -0.80089377       0.53549856
O       -0.28559462      -1.84612124      -0.41072245
H        2.64000709       0.74351239      -0.82509474
H        1.92092044      -0.79413223      -1.34749459
H        2.63816539      -0.65994660       0.25729139
H        0.91138848       1.00228849       0.91226552
H       -1.72205896       1.88766122      -1.28049797
H       -1.50474164       1.32109318       1.09799550
H       -1.90064011      -0.38916985       1.77086042
H       -2.32931774      -0.45807995       0.11422212
H        0.20734320      -1.25803608       1.43735615
H       -0.56343910      -1.46836067      -1.24983079
17
Frame=16 idx=007399 GeodesicLength=1.0587643136755411 rxn_smarts="[C:1]([C@@:2]1([H:11])[O:3][C:4]([H:12])([H:13])[C:5]([H:14])([H:15])[C@:6]1([O:7][H:17])[H:16])([H:8])([H:9])[H:10]>>[C:1]([C@@:2]([O+:3]=[C-:4][H:12])([C@@:6]([C:5]([H:13])([H:14])[H:15])([O:7][H:17])[H:16])[H:11])([H:8])([H:9])[H:10]"
C        2.06368234      -0.12387232      -0.50391360
C        0.74301650       0.30941618       0.07511838
O        0.00211295       1.00552877      -0.94416022
C       -1.07979756       1.62591640      -0.43160704
C       -1.54090226      -0.09819661       0.78031717
C       -0.20193512      -0.80059590       0.53860964
O       -0.28265413      -1.85123708      -0.40160874
H        2.63619440       0.74399959      -0.83226687
H        1.91924290      -0.79694040      -1.34839014
H        2.64050266      -0.65662989       0.25395817
H        0.91288192       1.00288624       0.90927755
H       -1.71060061       1.90496885      -1.28929572
H       -1.51591160       1.32565689       1.13034917
H       -1.90857880      -0.40879543       1.75849329
H       -2.32298196      -0.44967086       0.10447519
H        0.20914194      -1.25312011       1.44295926
H       -0.56341357      -1.47931433      -1.24231546
