11
Frame=0 idx=006989 GeodesicLength=0.0 rxn_smarts="[N:1]([c:2]1[c:3]([H:10])[n:4][c:5]([H:11])[n:6][n:7]1)([H:8])[H:9]>>[N:1]([c:2]1[c:3]([H:10])[n:4]2[c:5]([H:11])[n:6][n:7]12)([H:8])[H:9]"
N        1.72821988      -0.43874924      -0.50359984
C        0.60844913       0.31395068      -0.44990806
C        0.08722312       1.18523841       0.50813959
N       -1.25445695       0.99281070       0.51908882
C       -1.68616729      -0.38577521       0.35050508
N       -1.14493315      -1.08516618      -0.56635079
N       -0.53571391       0.05744733      -1.18479548
H        2.23786677      -0.65358406       0.33451432
H        1.82471309      -1.08282371      -1.26830012
H        0.55774496       1.86358080       1.20947717
H       -2.42294567      -0.76692951       1.05122935
11
Frame=1 idx=006989 GeodesicLength=0.03801858516559527 rxn_smarts="[N:1]([c:2]1[c:3]([H:10])[n:4][c:5]([H:11])[n:6][n:7]1)([H:8])[H:9]>>[N:1]([c:2]1[c:3]([H:10])[n:4]2[c:5]([H:11])[n:6][n:7]12)([H:8])[H:9]"
N        1.74251961      -0.42909967      -0.51284853
C        0.60957248       0.30285261      -0.44134248
C        0.08933732       1.16948523       0.51871461
N       -1.25563433       0.99010258       0.50776769
C       -1.69705898      -0.38215690       0.35819417
N       -1.15909146      -1.08642823      -0.55876335
N       -0.53153649       0.04195155      -1.17810382
H        2.26882504      -0.62821108       0.31883504
H        1.82934471      -1.08318541      -1.27030385
H        0.55975423       1.85246050       1.21512942
H       -2.45603213      -0.74777118       1.04272109
11
Frame=2 idx=006989 GeodesicLength=0.07599374736326996 rxn_smarts="[N:1]([c:2]1[c:3]([H:10])[n:4][c:5]([H:11])[n:6][n:7]1)([H:8])[H:9]>>[N:1]([c:2]1[c:3]([H:10])[n:4]2[c:5]([H:11])[n:6][n:7]12)([H:8])[H:9]"
N        1.75678323      -0.41906044      -0.52242216
C        0.61069871       0.29083295      -0.43211661
C        0.09144582       1.15288715       0.52989955
N       -1.25641618       0.98703128       0.49677426
C       -1.70847082      -0.37829077       0.36575938
N       -1.17385381      -1.08764923      -0.55119870
N       -0.52729297       0.02590526      -1.17096710
H        2.29997661      -0.60154723       0.30222177
H        1.83442693      -1.08361135      -1.27187251
H        0.56192550       1.84127316       1.22047517
H       -2.48922303      -0.72777077       1.03344695
11
Frame=3 idx=006989 GeodesicLength=0.11380794965936412 rxn_smarts="[N:1]([c:2]1[c:3]([H:10])[n:4][c:5]([H:11])[n:6][n:7]1)([H:8])[H:9]>>[N:1]([c:2]1[c:3]([H:10])[n:4]2[c:5]([H:11])[n:6][n:7]12)([H:8])[H:9]"
N        1.77089740      -0.40864546      -0.53217351
C        0.61183970       0.27788590      -0.42221235
C        0.09350784       1.13550766       0.54162311
N       -1.25681529       0.98366536       0.48599712
C       -1.72044051      -0.37407258       0.37300457
N       -1.18927007      -1.08869517      -0.54386600
N       -0.52292159       0.00939472      -1.16346543
H        2.33055260      -0.57422367       0.28499280
H        1.84018521      -1.08374401      -1.27310518
H        0.56419378       1.83016706       1.22528544
H       -2.52172907      -0.70723980       1.02391943
11
Frame=4 idx=006989 GeodesicLength=0.1515788722975607 rxn_smarts="[N:1]([c:2]1[c:3]([H:10])[n:4][c:5]([H:11])[n:6][n:7]1)([H:8])[H:9]>>[N:1]([c:2]1[c:3]([H:10])[n:4]2[c:5]([H:11])[n:6][n:7]12)([H:8])[H:9]"
N        1.78489223      -0.39779191      -0.54226044
C        0.61298868       0.26376749      -0.41147990
C        0.09556794       1.11714608       0.55403179
N       -1.25677246       0.97996307       0.47549497
C       -1.73304955      -0.36947703       0.37995007
N       -1.20541139      -1.08963519      -0.53666903
N       -0.51843702      -0.00774901      -1.15548453
H        2.36125279      -0.54534422       0.26670715
H        1.84651452      -1.08392533      -1.27383322
H        0.56664275       1.81886236       1.22976211
H       -2.55418847      -0.68581631       1.01378103
11
Frame=5 idx=006989 GeodesicLength=0.18947574618912566 rxn_smarts="[N:1]([c:2]1[c:3]([H:10])[n:4][c:5]([H:11])[n:6][n:7]1)([H:8])[H:9]>>[N:1]([c:2]1[c:3]([H:10])[n:4]2[c:5]([H:11])[n:6][n:7]12)([H:8])[H:9]"
N        1.79882213      -0.38641815      -0.55283410
C        0.61415994       0.24814145      -0.39970695
C        0.09762999       1.09758358       0.56724272
N       -1.25627455       0.97591894       0.46523747
C       -1.74647726      -0.36441964       0.38662053
N       -1.22239861      -1.09056429      -0.52940414
N       -0.51383170      -0.02579461      -1.14688756
H        2.39263061      -0.51411450       0.24695762
H        1.85346270      -1.08427105      -1.27400965
H        0.56938368       1.80700170       1.23409605
H       -2.58710692      -0.66306343       1.00268801
11
Frame=6 idx=006989 GeodesicLength=0.22732854118110643 rxn_smarts="[N:1]([c:2]1[c:3]([H:10])[n:4][c:5]([H:11])[n:6][n:7]1)([H:8])[H:9]>>[N:1]([c:2]1[c:3]([H:10])[n:4]2[c:5]([H:11])[n:6][n:7]12)([H:8])[H:9]"
N        1.81258358      -0.37447670      -0.56409075
C        0.61534137       0.23065687      -0.38662640
C        0.09980850       1.07663305       0.58153308
N       -1.25513733       0.97157948       0.45532177
C       -1.76076318      -0.35880508       0.39296265
N       -1.24030062      -1.09151756      -0.52205536
N       -0.50906574      -0.04490320      -1.13751815
H        2.42495105      -0.47945783       0.22484999
H        1.86104062      -1.08526477      -1.27307464
H        0.57242228       1.79426132       1.23848867
H       -2.62088054      -0.63870556       0.99020915
11
Frame=7 idx=006989 GeodesicLength=0.2657252336215699 rxn_smarts="[N:1]([c:2]1[c:3]([H:10])[n:4][c:5]([H:11])[n:6][n:7]1)([H:8])[H:9]>>[N:1]([c:2]1[c:3]([H:10])[n:4]2[c:5]([H:11])[n:6][n:7]12)([H:8])[H:9]"
N        1.82616454      -0.36171747      -0.57597479
C        0.61655673       0.21089492      -0.37218319
C        0.10192355       1.05415364       0.59637026
N       -1.25343854       0.96687737       0.44524536
C       -1.77611389      -0.35234070       0.39889009
N       -1.25923633      -1.09251510      -0.51429611
N       -0.50404737      -0.06558238      -1.12727151
H        2.45782280      -0.44130458       0.20077539
H        1.86983107      -1.08621132      -1.27165065
H        0.57578966       1.77984088       1.24329189
H       -2.65525222      -0.61209526       0.97680327
11
Frame=8 idx=006989 GeodesicLength=0.3040431110552003 rxn_smarts="[N:1]([c:2]1[c:3]([H:10])[n:4][c:5]([H:11])[n:6][n:7]1)([H:8])[H:9]>>[N:1]([c:2]1[c:3]([H:10])[n:4]2[c:5]([H:11])[n:6][n:7]12)([H:8])[H:9]"
N        1.83942547      -0.34819622      -0.58840881
C        0.61784501       0.18862161      -0.35615830
C        0.10404971       1.03043606       0.61181976
N       -1.25105761       0.96202629       0.43493932
C       -1.79242984      -0.34500355       0.40441608
N       -1.27923159      -1.09375056      -0.50607111
N       -0.49878893      -0.08808886      -1.11610715
H        2.49047577      -0.40018182       0.17464457
H        1.88021009      -1.08649856      -1.26990297
H        0.57951369       1.76395991       1.24842258
H       -2.69001178      -0.58332430       0.96240603
11
Frame=9 idx=006989 GeodesicLength=0.3423948712729318 rxn_smarts="[N:1]([c:2]1[c:3]([H:10])[n:4][c:5]([H:11])[n:6][n:7]1)([H:8])[H:9]>>[N:1]([c:2]1[c:3]([H:10])[n:4]2[c:5]([H:11])[n:6][n:7]12)([H:8])[H:9]"
N        1.85220370      -0.33382146      -0.60111483
C        0.61926178       0.16358255      -0.33848625
C        0.10612230       1.00564007       0.62748968
N       -1.24795188       0.95703012       0.42402979
C       -1.80959453      -0.33659718       0.40952067
N       -1.30023618      -1.09520084      -0.49722221
N       -0.49317669      -0.11278536      -1.10395541
H        2.52167168      -0.35723820       0.14718590
H        1.89276252      -1.08490435      -1.26866996
H        0.58346322       1.74663886       1.25367504
H       -2.72452592      -0.55234421       0.94754758
11
Frame=10 idx=006989 GeodesicLength=0.3804424813328611 rxn_smarts="[N:1]([c:2]1[c:3]([H:10])[n:4][c:5]([H:11])[n:6][n:7]1)([H:8])[H:9]>>[N:1]([c:2]1[c:3]([H:10])[n:4]2[c:5]([H:11])[n:6][n:7]12)([H:8])[H:9]"
N        1.86411355      -0.31862528      -0.61361074
C        0.62082060       0.13586021      -0.31923219
C        0.10813705       0.98022980       0.64284860
N       -1.24399312       0.95192616       0.41213491
C       -1.82721513      -0.32712680       0.41405374
N       -1.32210945      -1.09690315      -0.48790172
N       -0.48716002      -0.13981574      -1.09079680
H        2.55029496      -0.31395088       0.11966976
H        1.90751214      -1.08032999      -1.26895198
H        0.58757137       1.72825785       1.25881505
H       -2.75797196      -0.51952217       0.93297138
11
Frame=11 idx=006989 GeodesicLength=0.4180295055612266 rxn_smarts="[N:1]([c:2]1[c:3]([H:10])[n:4][c:5]([H:11])[n:6][n:7]1)([H:8])[H:9]>>[N:1]([c:2]1[c:3]([H:10])[n:4]2[c:5]([H:11])[n:6][n:7]12)([H:8])[H:9]"
N        1.87489425      -0.30274195      -0.62600247
C        0.62262045       0.10570984      -0.29871175
C        0.11016817       0.95412731       0.65812577
N       -1.23910432       0.94648998       0.39978127
C       -1.84489491      -0.31681552       0.41817250
N       -1.34466663      -1.09853375      -0.47856938
N       -0.48081733      -0.16866959      -1.07673317
H        2.57664088      -0.26910079       0.09158358
H        1.92352592      -1.07416459      -1.26965232
H        0.59197841       1.70879402       1.26393220
H       -2.79034490      -0.48509496       0.91807377
11
Frame=12 idx=006989 GeodesicLength=0.4552224317083902 rxn_smarts="[N:1]([c:2]1[c:3]([H:10])[n:4][c:5]([H:11])[n:6][n:7]1)([H:8])[H:9]>>[N:1]([c:2]1[c:3]([H:10])[n:4]2[c:5]([H:11])[n:6][n:7]12)([H:8])[H:9]"
N        1.88428798      -0.28608438      -0.63788152
C        0.62492362       0.07363456      -0.27707144
C        0.11223552       0.92798766       0.67259729
N       -1.23325400       0.94070924       0.38627932
C       -1.86221206      -0.30573672       0.42206665
N       -1.36731528      -1.10056019      -0.46842913
N       -0.47402526      -0.19995932      -1.06153380
H        2.59944932      -0.22493723       0.06451902
H        1.94069519      -1.06458238      -1.27256787
H        0.59648533       1.68848971       1.26898628
H       -2.82127035      -0.44896096       0.90303521
11
Frame=13 idx=006989 GeodesicLength=0.4915068728466806 rxn_smarts="[N:1]([c:2]1[c:3]([H:10])[n:4][c:5]([H:11])[n:6][n:7]1)([H:8])[H:9]>>[N:1]([c:2]1[c:3]([H:10])[n:4]2[c:5]([H:11])[n:6][n:7]12)([H:8])[H:9]"
N        1.89202733      -0.26917984      -0.64898760
C        0.62766860       0.04141417      -0.25561962
C        0.11431452       0.90243443       0.68617224
N       -1.22660920       0.93453806       0.37221501
C       -1.87839883      -0.29438085       0.42570744
N       -1.38940773      -1.10248148      -0.45848146
N       -0.46710647      -0.23224882      -1.04591341
H        2.61828766      -0.18256812       0.03922575
H        1.95774006      -1.05294125      -1.27650186
H        0.60094613       1.66821166       1.27373612
H       -2.84946206      -0.41279796       0.88844740
11
Frame=14 idx=006989 GeodesicLength=0.5271517563884995 rxn_smarts="[N:1]([c:2]1[c:3]([H:10])[n:4][c:5]([H:11])[n:6][n:7]1)([H:8])[H:9]>>[N:1]([c:2]1[c:3]([H:10])[n:4]2[c:5]([H:11])[n:6][n:7]12)([H:8])[H:9]"
N        1.89806283      -0.25217557      -0.65932391
C        0.63091139       0.00973748      -0.23472992
C        0.11646375       0.87756126       0.69880815
N       -1.21918055       0.92787465       0.35765415
C       -1.89332246      -0.28288362       0.42910047
N       -1.41064849      -1.10429619      -0.44868255
N       -0.46010542      -0.26527424      -1.02987998
H        2.63338183      -0.14200729       0.01579591
H        1.97411873      -1.03969184      -1.28122840
H        0.60535095       1.64798897       1.27829159
H       -2.87503255      -0.37683361       0.87419449
11
Frame=15 idx=006989 GeodesicLength=0.5621401546655812 rxn_smarts="[N:1]([c:2]1[c:3]([H:10])[n:4][c:5]([H:11])[n:6][n:7]1)([H:8])[H:9]>>[N:1]([c:2]1[c:3]([H:10])[n:4]2[c:5]([H:11])[n:6][n:7]12)([H:8])[H:9]"
N        1.90245433      -0.23538775      -0.66913762
C        0.63464577      -0.02077904      -0.21478738
C        0.11869383       0.85333913       0.71081650
N       -1.21108162       0.92072695       0.34300829
C       -1.90695303      -0.27138551       0.43218852
N       -1.43092542      -1.10582996      -0.43936286
N       -0.45317878      -0.29844873      -1.01366189
H        2.64540924      -0.10226830      -0.00661142
H        1.98927275      -1.02631672      -1.28550991
H        0.60971591       1.62778612       1.28306886
H       -2.89805299      -0.34143619       0.85998892
11
Frame=16 idx=006989 GeodesicLength=0.5966693789100412 rxn_smarts="[N:1]([c:2]1[c:3]([H:10])[n:4][c:5]([H:11])[n:6][n:7]1)([H:8])[H:9]>>[N:1]([c:2]1[c:3]([H:10])[n:4]2[c:5]([H:11])[n:6][n:7]12)([H:8])[H:9]"
N        1.90537929      -0.21884755      -0.67829262
C        0.63886237      -0.04964757      -0.19596561
C        0.12089997       0.83006486       0.72208173
N       -1.20251746       0.91306646       0.32833746
C       -1.91912446      -0.26005460       0.43514883
N       -1.44987627      -1.10713950      -0.43036218
N       -0.44628446      -0.33160246      -0.99723403
H        2.65428515      -0.06495157      -0.02711314
H        2.00309461      -1.01220511      -1.29017146
H        0.61378958       1.60821520       1.28759614
H       -2.91850832      -0.30689815       0.84597487
