13
Frame=0 idx=006839 GeodesicLength=0.0 rxn_smarts="[N:1]([c:2]1[c:3]([H:10])[n:4]([H:11])[c:5]([O:6][H:12])[c:7]1[H:13])([H:8])[H:9]>>[N:1]([C:2]1=[C:7]([H:13])[C@:5]([O:6][H:12])([H:11])[N:4]=[C:3]1[H:10])([H:8])[H:9]"
N       -2.12893303       0.54852098      -0.58458797
C       -0.85931689       0.14854637      -0.19286491
C       -0.45684874      -1.17124256       0.04343336
N        0.86080255      -1.24561264       0.33315994
C        1.32624884       0.09345131       0.22656181
O        2.51976823       0.44429167       0.76830979
C        0.26751915       0.95867641      -0.07512495
H       -2.86327368      -0.09362671      -0.33799863
H       -2.36703203       1.49600963      -0.34495365
H       -1.03369367      -2.07327664      -0.10073125
H        1.49213248      -0.78907677      -0.71010318
H        2.90614192      -0.34603571       1.15718707
H        0.33648492       2.02937467      -0.18228743
13
Frame=1 idx=006839 GeodesicLength=0.0407723245562315 rxn_smarts="[N:1]([c:2]1[c:3]([H:10])[n:4]([H:11])[c:5]([O:6][H:12])[c:7]1[H:13])([H:8])[H:9]>>[N:1]([C:2]1=[C:7]([H:13])[C@:5]([O:6][H:12])([H:11])[N:4]=[C:3]1[H:10])([H:8])[H:9]"
N       -2.12550356       0.54973378      -0.58506644
C       -0.86129826       0.15127939      -0.17352417
C       -0.45803506      -1.17176828       0.05185241
N        0.86443545      -1.24987565       0.30993497
C        1.33439334       0.08599539       0.20311274
O        2.54042678       0.43482840       0.71898329
C        0.26859654       0.95727315      -0.06321263
H       -2.86217255      -0.09410853      -0.34997354
H       -2.36811102       1.49643695      -0.34667007
H       -1.03927366      -2.07193296      -0.08774727
H        1.49570999      -0.80232946      -0.74028549
H        2.87445913      -0.31491158       1.21976113
H        0.33637287       2.02937940      -0.15716493
13
Frame=2 idx=006839 GeodesicLength=0.08211081810579107 rxn_smarts="[N:1]([c:2]1[c:3]([H:10])[n:4]([H:11])[c:5]([O:6][H:12])[c:7]1[H:13])([H:8])[H:9]>>[N:1]([C:2]1=[C:7]([H:13])[C@:5]([O:6][H:12])([H:11])[N:4]=[C:3]1[H:10])([H:8])[H:9]"
N       -2.12250032       0.55218877      -0.58259480
C       -0.86159209       0.15332081      -0.16036398
C       -0.45876656      -1.17292229       0.05619533
N        0.86703312      -1.25483278       0.28673218
C        1.34246107       0.07746701       0.17818730
O        2.55779625       0.42102918       0.67715705
C        0.27169657       0.95459077      -0.05736267
H       -2.86043604      -0.09372474      -0.35722338
H       -2.36798224       1.49736711      -0.34092379
H       -1.04497074      -2.07101953      -0.07718551
H        1.50198866      -0.81904016      -0.76926791
H        2.83642489      -0.27254393       1.28157948
H        0.33884745       2.02811979      -0.13492929
13
Frame=3 idx=006839 GeodesicLength=0.12395908588430342 rxn_smarts="[N:1]([c:2]1[c:3]([H:10])[n:4]([H:11])[c:5]([O:6][H:12])[c:7]1[H:13])([H:8])[H:9]>>[N:1]([C:2]1=[C:7]([H:13])[C@:5]([O:6][H:12])([H:11])[N:4]=[C:3]1[H:10])([H:8])[H:9]"
N       -2.11976511       0.55535150      -0.57875575
C       -0.86118355       0.15481091      -0.15024364
C       -0.45976311      -1.17460265       0.05919284
N        0.86826899      -1.26033186       0.26565712
C        1.34982420       0.06806463       0.15433844
O        2.57189491       0.40465615       0.64321137
C        0.27566205       0.95095773      -0.05406216
H       -2.85868100      -0.09223253      -0.36141313
H       -2.36685534       1.49894069      -0.33238275
H       -1.05032228      -2.07047172      -0.07143602
H        1.50994904      -0.83853643      -0.79505507
H        2.79795701      -0.22224192       1.33561324
H        0.34301418       2.02563550      -0.11466448
13
Frame=4 idx=006839 GeodesicLength=0.16655893219306556 rxn_smarts="[N:1]([c:2]1[c:3]([H:10])[n:4]([H:11])[c:5]([O:6][H:12])[c:7]1[H:13])([H:8])[H:9]>>[N:1]([C:2]1=[C:7]([H:13])[C@:5]([O:6][H:12])([H:11])[N:4]=[C:3]1[H:10])([H:8])[H:9]"
N       -2.11729974       0.55922936      -0.57366401
C       -0.86022091       0.15597401      -0.14238109
C       -0.46101994      -1.17666086       0.06103884
N        0.86840563      -1.26625350       0.24645332
C        1.35670061       0.05797071       0.13156062
O        2.58365280       0.38619053       0.61588772
C        0.28038893       0.94662403      -0.05310778
H       -2.85693840      -0.09002308      -0.36375017
H       -2.36522259       1.50089297      -0.32063980
H       -1.05544102      -2.07015510      -0.06994099
H        1.51957234      -0.86044622      -0.81789482
H        2.75876538      -0.16549558       1.38280754
H        0.34865689       2.02215272      -0.09636938
13
Frame=5 idx=006839 GeodesicLength=0.20940431040348895 rxn_smarts="[N:1]([c:2]1[c:3]([H:10])[n:4]([H:11])[c:5]([O:6][H:12])[c:7]1[H:13])([H:8])[H:9]>>[N:1]([C:2]1=[C:7]([H:13])[C@:5]([O:6][H:12])([H:11])[N:4]=[C:3]1[H:10])([H:8])[H:9]"
N       -2.11526075       0.56367972      -0.56746220
C       -0.85861319       0.15695302      -0.13738202
C       -0.46202545      -1.17889841       0.06021525
N        0.86806572      -1.27228152       0.22746783
C        1.36331988       0.04773193       0.10983398
O        2.59274206       0.36659393       0.59641224
C        0.28575150       0.94194268      -0.05492913
H       -2.85517675      -0.08745132      -0.36431483
H       -2.36339743       1.50293204      -0.30565652
H       -1.06085134      -2.06995515      -0.06870742
H        1.53188657      -0.88325953      -0.83846559
H        2.71826195      -0.10602059       1.42329787
H        0.35529725       2.01803321      -0.08030944
13
Frame=6 idx=006839 GeodesicLength=0.25301564913500635 rxn_smarts="[N:1]([c:2]1[c:3]([H:10])[n:4]([H:11])[c:5]([O:6][H:12])[c:7]1[H:13])([H:8])[H:9]>>[N:1]([C:2]1=[C:7]([H:13])[C@:5]([O:6][H:12])([H:11])[N:4]=[C:3]1[H:10])([H:8])[H:9]"
N       -2.11405715       0.56896239      -0.55893343
C       -0.85650108       0.15759947      -0.13531149
C       -0.46331407      -1.18155768       0.05717514
N        0.86668754      -1.27868142       0.21074420
C        1.36954796       0.03677635       0.08979793
O        2.59964037       0.34592656       0.58320115
C        0.29181927       0.93656666      -0.06047582
H       -2.85386746      -0.08393040      -0.36098149
H       -2.36112594       1.50539798      -0.28606044
H       -1.06573639      -2.07001448      -0.07448253
H        1.54688086      -0.90881513      -0.85487133
H        2.67673332      -0.04111153       1.45888450
H        0.36329276       2.01288123      -0.06868638
13
Frame=7 idx=006839 GeodesicLength=0.29760307862989943 rxn_smarts="[N:1]([c:2]1[c:3]([H:10])[n:4]([H:11])[c:5]([O:6][H:12])[c:7]1[H:13])([H:8])[H:9]>>[N:1]([C:2]1=[C:7]([H:13])[C@:5]([O:6][H:12])([H:11])[N:4]=[C:3]1[H:10])([H:8])[H:9]"
N       -2.11347759       0.57507980      -0.54804757
C       -0.85376169       0.15803526      -0.13600265
C       -0.46457108      -1.18456898       0.05119895
N        0.86478684      -1.28546515       0.19466699
C        1.37579419       0.02526278       0.07084268
O        2.60439814       0.32392593       0.57680334
C        0.29870464       0.93064328      -0.06996552
H       -2.85277199      -0.07972683      -0.35438812
H       -2.35837346       1.50801214      -0.26136282
H       -1.07054378      -2.07024540      -0.08431644
H        1.56493176      -0.93628300      -0.86821910
H        2.63231236       0.02844057       1.49012768
H        0.37257166       2.00688961      -0.06133742
13
Frame=8 idx=006839 GeodesicLength=0.34214113951416525 rxn_smarts="[N:1]([c:2]1[c:3]([H:10])[n:4]([H:11])[c:5]([O:6][H:12])[c:7]1[H:13])([H:8])[H:9]>>[N:1]([C:2]1=[C:7]([H:13])[C@:5]([O:6][H:12])([H:11])[N:4]=[C:3]1[H:10])([H:8])[H:9]"
N       -2.11303277       0.58139086      -0.53679167
C       -0.85113436       0.15846548      -0.13703002
C       -0.46594431      -1.18765471       0.04394270
N        0.86256490      -1.29221423       0.17860909
C        1.38162378       0.01399197       0.05418808
O        2.60713112       0.30214727       0.57626511
C        0.30526687       0.92478700      -0.07895388
H       -2.85180884      -0.07540167      -0.34778381
H       -2.35560382       1.51040629      -0.23556886
H       -1.07563507      -2.07050763      -0.09465102
H        1.58474053      -0.96305591      -0.87916231
H        2.58976806       0.09689825       1.51415190
H        0.38206391       2.00074703      -0.05721533
13
Frame=9 idx=006839 GeodesicLength=0.38706986885865896 rxn_smarts="[N:1]([c:2]1[c:3]([H:10])[n:4]([H:11])[c:5]([O:6][H:12])[c:7]1[H:13])([H:8])[H:9]>>[N:1]([C:2]1=[C:7]([H:13])[C@:5]([O:6][H:12])([H:11])[N:4]=[C:3]1[H:10])([H:8])[H:9]"
N       -2.11258904       0.58823079      -0.52529662
C       -0.84891902       0.15886494      -0.13760542
C       -0.46832177      -1.19088203       0.03741265
N        0.85906708      -1.29918484       0.16573949
C        1.38665713       0.00213825       0.04025910
O        2.60875979       0.27981238       0.57820591
C        0.31153642       0.91858953      -0.08743437
H       -2.85107518      -0.07080873      -0.34291302
H       -2.35290401       1.51255116      -0.20804719
H       -1.08054520      -2.07057056      -0.11143387
H        1.60480763      -0.99183181      -0.88554381
H        2.55188297       0.16898808       1.53016092
H        0.39164318       1.99410282      -0.05350376
13
Frame=10 idx=006839 GeodesicLength=0.4331110838182094 rxn_smarts="[N:1]([c:2]1[c:3]([H:10])[n:4]([H:11])[c:5]([O:6][H:12])[c:7]1[H:13])([H:8])[H:9]>>[N:1]([C:2]1=[C:7]([H:13])[C@:5]([O:6][H:12])([H:11])[N:4]=[C:3]1[H:10])([H:8])[H:9]"
N       -2.11448337       0.59665802      -0.50504346
C       -0.84494221       0.15869444      -0.14707622
C       -0.46949022      -1.19494084       0.01990165
N        0.85584098      -1.30666890       0.15086353
C        1.39266261      -0.01020778       0.02733442
O        2.60457936       0.25784836       0.59533489
C        0.31980872       0.91133331      -0.10827999
H       -2.85117749      -0.06424821      -0.32198081
H       -2.34767483       1.51517147      -0.16613887
H       -1.08472234      -2.07128261      -0.13722584
H        1.63425121      -1.02277692      -0.88654337
H        2.50103042       0.24390722       1.54961953
H        0.40431715       1.98651246      -0.07076545
13
Frame=11 idx=006839 GeodesicLength=0.4783675039625044 rxn_smarts="[N:1]([c:2]1[c:3]([H:10])[n:4]([H:11])[c:5]([O:6][H:12])[c:7]1[H:13])([H:8])[H:9]>>[N:1]([C:2]1=[C:7]([H:13])[C@:5]([O:6][H:12])([H:11])[N:4]=[C:3]1[H:10])([H:8])[H:9]"
N       -2.11427808       0.60381343      -0.49195043
C       -0.84319230       0.15899393      -0.14750245
C       -0.47249354      -1.19851247       0.01095244
N        0.85137867      -1.31389897       0.13883627
C        1.39679463      -0.02216582       0.01788716
O        2.60228150       0.23527896       0.60649965
C        0.32541525       0.90487690      -0.11615934
H       -2.85088160      -0.05910629      -0.31580645
H       -2.34436194       1.51674716      -0.13609082
H       -1.08960433      -2.07112783      -0.16026619
H        1.65705694      -1.05163529      -0.88680891
H        2.46789723       0.31710915       1.55333760
H        0.41398757       1.97962714      -0.07292853
13
Frame=12 idx=006839 GeodesicLength=0.5244491215980476 rxn_smarts="[N:1]([c:2]1[c:3]([H:10])[n:4]([H:11])[c:5]([O:6][H:12])[c:7]1[H:13])([H:8])[H:9]>>[N:1]([C:2]1=[C:7]([H:13])[C@:5]([O:6][H:12])([H:11])[N:4]=[C:3]1[H:10])([H:8])[H:9]"
N       -2.11567910       0.61247603      -0.47048212
C       -0.83978501       0.15893405      -0.15625869
C       -0.47438736      -1.20264679      -0.00832162
N        0.84703708      -1.32157241       0.12475607
C        1.40173234      -0.03461286       0.00930777
O        2.59322294       0.21347664       0.63182827
C        0.33304079       0.89736872      -0.13632015
H       -2.85086045      -0.05221746      -0.29490351
H       -2.33767863       1.51846732      -0.09230045
H       -1.09393438      -2.07124631      -0.19156102
H        1.68861284      -1.08289648      -0.88083838
H        2.42227880       0.39260759       1.55889725
H        0.42640015       1.97186196      -0.09380341
13
Frame=13 idx=006839 GeodesicLength=0.5709243030801 rxn_smarts="[N:1]([c:2]1[c:3]([H:10])[n:4]([H:11])[c:5]([O:6][H:12])[c:7]1[H:13])([H:8])[H:9]>>[N:1]([C:2]1=[C:7]([H:13])[C@:5]([O:6][H:12])([H:11])[N:4]=[C:3]1[H:10])([H:8])[H:9]"
N       -2.11677671       0.62111308      -0.44843915
C       -0.83686598       0.15887264      -0.16431833
C       -0.47684190      -1.20689527      -0.02853899
N        0.84213375      -1.32936814       0.11069114
C        1.40617573      -0.04704273       0.00283549
O        2.58160738       0.19171254       0.66132049
C        0.34020180       0.88968283      -0.15591816
H       -2.85078219      -0.04524687      -0.27401263
H       -2.33013428       1.51964813      -0.04794649
H       -1.09855116      -2.07106969      -0.22581034
H        1.72105822      -1.11407724      -0.87147951
H        2.38028198       0.46870552       1.55762983
H        0.43849336       1.96396518      -0.11601335
13
Frame=14 idx=006839 GeodesicLength=0.6172314399449986 rxn_smarts="[N:1]([c:2]1[c:3]([H:10])[n:4]([H:11])[c:5]([O:6][H:12])[c:7]1[H:13])([H:8])[H:9]>>[N:1]([C:2]1=[C:7]([H:13])[C@:5]([O:6][H:12])([H:11])[N:4]=[C:3]1[H:10])([H:8])[H:9]"
N       -2.11725669       0.62933705      -0.42928802
C       -0.83521281       0.15894044      -0.16859037
C       -0.48060419      -1.21100550      -0.04571960
N        0.83599889      -1.33719695       0.09874240
C        1.40921903      -0.05956381      -0.00029294
O        2.56941894       0.16856830       0.69046697
C        0.34583679       0.88222816      -0.16848542
H       -2.85092629      -0.03902835      -0.26108199
H       -2.32391120       1.51950837      -0.00706114
H       -1.10334893      -2.07000485      -0.26240463
H        1.75047451      -1.14481993      -0.85903675
H        2.35125660       0.54676652       1.54456452
H        0.44905535       1.95627053      -0.13181303
13
Frame=15 idx=006839 GeodesicLength=0.6636720338250063 rxn_smarts="[N:1]([c:2]1[c:3]([H:10])[n:4]([H:11])[c:5]([O:6][H:12])[c:7]1[H:13])([H:8])[H:9]>>[N:1]([C:2]1=[C:7]([H:13])[C@:5]([O:6][H:12])([H:11])[N:4]=[C:3]1[H:10])([H:8])[H:9]"
N       -2.11831049       0.63797981      -0.40376990
C       -0.83271505       0.15881495      -0.17876887
C       -0.48357873      -1.21534361      -0.07101098
N        0.82990622      -1.34514745       0.08444843
C        1.41237455      -0.07202699      -0.00228754
O        2.54916639       0.14774661       0.73135993
C        0.35253729       0.87401552      -0.18994195
H       -2.85066517      -0.03157939      -0.23436653
H       -2.31337718       1.51969398       0.04123377
H       -1.10754951      -2.06874199      -0.30609189
H        1.78639573      -1.17669509      -0.83982518
H        2.31475882       0.62339046       1.53051956
H        0.46105715       1.94789318      -0.16149884
13
Frame=16 idx=006839 GeodesicLength=0.7094990155590685 rxn_smarts="[N:1]([c:2]1[c:3]([H:10])[n:4]([H:11])[c:5]([O:6][H:12])[c:7]1[H:13])([H:8])[H:9]>>[N:1]([C:2]1=[C:7]([H:13])[C@:5]([O:6][H:12])([H:11])[N:4]=[C:3]1[H:10])([H:8])[H:9]"
N       -2.11885315       0.64545585      -0.38378104
C       -0.83176351       0.15891498      -0.18409931
C       -0.48764314      -1.21920015      -0.09185133
N        0.82318007      -1.35267502       0.07034902
C        1.41419471      -0.08382061      -0.00162770
O        2.52850326       0.12536252       0.77094940
C        0.35714261       0.86681679      -0.20115303
H       -2.85083556      -0.02561638      -0.21863770
H       -2.30571877       1.51839917       0.08167529
H       -1.11253154      -2.06667387      -0.34580548
H        1.81821983      -1.20605587      -0.82015419
H        2.29567848       0.69866169       1.50344262
H        0.47042672       1.94043090      -0.17930654
