15
Frame=0 idx=007364 GeodesicLength=0.0 rxn_smarts="[C:1]1([H:8])([H:9])[C:2]([H:10])([H:11])[C:3]12[C:4]([H:12])([H:13])[C@@:5]1([H:14])[O:6][C@@:7]21[H:15]>>[C:1](=[C:3]1[C:4]([H:12])([H:13])[C@:5]2([H:14])[C:2]([H:10])([H:11])[C@@:7]1([H:15])[O:6]2)([H:8])[H:9]"
C       -1.25054704       0.24030078      -1.53767739
C       -1.15649645      -0.41442353       2.03457638
C       -0.11606783       0.11548445      -0.87466988
C        0.83088939      -1.04450907      -0.55991817
C        1.53496861      -0.09422604       0.41482448
O        2.00529755       0.99672752      -0.34941159
C        0.63585758       1.01945955       0.05393321
H       -1.66539851      -0.58199097      -2.10808376
H       -1.80476527       1.17168461      -1.52547384
H       -1.04296228       0.58125501       2.50998834
H       -2.07373681      -0.28777668       1.42589943
H        0.31857237      -1.87185779      -0.06992274
H        1.46110947      -1.40414374      -1.37296684
H        2.02253106      -0.31449081       1.35367914
H        0.30074821       1.88850671       0.60522324
15
Frame=1 idx=007364 GeodesicLength=0.1625241278747022 rxn_smarts="[C:1]1([H:8])([H:9])[C:2]([H:10])([H:11])[C:3]12[C:4]([H:12])([H:13])[C@@:5]1([H:14])[O:6][C@@:7]21[H:15]>>[C:1](=[C:3]1[C:4]([H:12])([H:13])[C@:5]2([H:14])[C:2]([H:10])([H:11])[C@@:7]1([H:15])[O:6]2)([H:8])[H:9]"
C       -1.27665141       0.23455952      -1.48640586
C       -1.11510777      -0.36582620       1.94888472
C       -0.12802574       0.10931264      -0.83990864
C        0.83234922      -1.04670232      -0.55376522
C        1.53232968      -0.10711292       0.43482280
O        2.00361058       0.98617459      -0.32808872
C        0.63385525       1.02156197       0.07218773
H       -1.67867295      -0.57807055      -2.07941529
H       -1.80909136       1.17841041      -1.50193350
H       -1.07596077       0.62009690       2.45142433
H       -2.07250154      -0.34717615       1.39572247
H        0.33826874      -1.89251214      -0.07673118
H        1.45374251      -1.38715903      -1.38166715
H        2.04770623      -0.34262981       1.35505443
H        0.31414933       1.91707307       0.58981907
15
Frame=2 idx=007364 GeodesicLength=0.3250805111171033 rxn_smarts="[C:1]1([H:8])([H:9])[C:2]([H:10])([H:11])[C:3]12[C:4]([H:12])([H:13])[C@@:5]1([H:14])[O:6][C@@:7]21[H:15]>>[C:1](=[C:3]1[C:4]([H:12])([H:13])[C@:5]2([H:14])[C:2]([H:10])([H:11])[C@@:7]1([H:15])[O:6]2)([H:8])[H:9]"
C       -1.30065261       0.23037152      -1.43948552
C       -1.07919145      -0.31852988       1.86739149
C       -0.13781128       0.10515735      -0.81002152
C        0.83239584      -1.04797322      -0.54739165
C        1.52756949      -0.11919044       0.45539799
O        2.00268380       0.97576338      -0.30532983
C        0.63164299       1.02528700       0.08773918
H       -1.69265027      -0.57409537      -2.05019801
H       -1.81232551       1.18477110      -1.48249489
H       -1.10297428       0.65277385       2.39477798
H       -2.06095239      -0.40797701       1.37103582
H        0.35355849      -1.90972798      -0.08342456
H        1.44644968      -1.37136306      -1.38742246
H        2.06662660      -0.36992084       1.35806569
H        0.32563090       1.94465360       0.57136030
15
Frame=3 idx=007364 GeodesicLength=0.48779707531242256 rxn_smarts="[C:1]1([H:8])([H:9])[C:2]([H:10])([H:11])[C:3]12[C:4]([H:12])([H:13])[C@@:5]1([H:14])[O:6][C@@:7]21[H:15]>>[C:1](=[C:3]1[C:4]([H:12])([H:13])[C@:5]2([H:14])[C:2]([H:10])([H:11])[C@@:7]1([H:15])[O:6]2)([H:8])[H:9]"
C       -1.32269006       0.22757896      -1.39670909
C       -1.04813103      -0.27296992       1.78927510
C       -0.14570684       0.10280493      -0.78471084
C        0.83139438      -1.04845905      -0.54105614
C        1.52072697      -0.13065898       0.47650428
O        2.00221727       0.96547324      -0.28095414
C        0.62910661       1.03031629       0.10094597
H       -1.70729718      -0.57048115      -2.02057636
H       -1.81533824       1.19042275      -1.46601240
H       -1.12446832       0.68035378       2.34026451
H       -2.03975416      -0.46810953       1.35080659
H        0.36518987      -1.92410547      -0.09035312
H        1.43972310      -1.35649807      -1.39084635
H        2.07968188      -0.39670353       1.36275003
H        0.33534574       1.97103575       0.55067196
15
Frame=4 idx=007364 GeodesicLength=0.6507217581900244 rxn_smarts="[C:1]1([H:8])([H:9])[C:2]([H:10])([H:11])[C:3]12[C:4]([H:12])([H:13])[C@@:5]1([H:14])[O:6][C@@:7]21[H:15]>>[C:1](=[C:3]1[C:4]([H:12])([H:13])[C@:5]2([H:14])[C:2]([H:10])([H:11])[C@@:7]1([H:15])[O:6]2)([H:8])[H:9]"
C       -1.34300135       0.22593853      -1.35773971
C       -1.02129449      -0.22947316       1.71400903
C       -0.15202318       0.10199645      -0.76359806
C        0.82961053      -1.04826768      -0.53491679
C        1.51186903      -0.14165754       0.49804149
O        2.00188729       0.95533423      -0.25494966
C        0.62612427       1.03635923       0.11210737
H       -1.72251224      -0.56748406      -1.99079095
H       -1.81851011       1.19528341      -1.45200929
H       -1.14074742       0.70345303       2.28823081
H       -2.00981599      -0.52595175       1.33430502
H        0.37382687      -1.93614074      -0.09770384
H        1.43386174      -1.34232222      -1.39240570
H        2.08728813      -0.42314864       1.36905331
H        0.34343689       1.99608091       0.52836695
15
Frame=5 idx=007364 GeodesicLength=0.8135496459567733 rxn_smarts="[C:1]1([H:8])([H:9])[C:2]([H:10])([H:11])[C:3]12[C:4]([H:12])([H:13])[C@@:5]1([H:14])[O:6][C@@:7]21[H:15]>>[C:1](=[C:3]1[C:4]([H:12])([H:13])[C@:5]2([H:14])[C:2]([H:10])([H:11])[C@@:7]1([H:15])[O:6]2)([H:8])[H:9]"
C       -1.36200775       0.22521579      -1.32241499
C       -0.99815961      -0.18840347       1.64139808
C       -0.15713044       0.10248139      -0.74635271
C        0.82726071      -1.04752347      -0.52903897
C        1.50121683      -0.15228714       0.51998557
O        2.00156937       0.94551438      -0.22737226
C        0.62264393       1.04321908       0.12148290
H       -1.73834272      -0.56525762      -1.96126895
H       -1.82224317       1.19938846      -1.44043371
H       -1.15182773       0.72246435       2.23913138
H       -1.97225850      -0.58025822       1.32085000
H        0.37999542      -1.94635101      -0.10548928
H        1.42909940      -1.32862139      -1.39246773
H        2.09006795      -0.44937980       1.37707218
H        0.35011631       2.01979868       0.50491850
15
Frame=6 idx=007364 GeodesicLength=0.9765934618247343 rxn_smarts="[C:1]1([H:8])([H:9])[C:2]([H:10])([H:11])[C:3]12[C:4]([H:12])([H:13])[C@@:5]1([H:14])[O:6][C@@:7]21[H:15]>>[C:1](=[C:3]1[C:4]([H:12])([H:13])[C@:5]2([H:14])[C:2]([H:10])([H:11])[C@@:7]1([H:15])[O:6]2)([H:8])[H:9]"
C       -1.37980978       0.22513625      -1.29031659
C       -0.97809161      -0.14984539       1.57105657
C       -0.16126268       0.10398824      -0.73250089
C        0.82447874      -1.04633050      -0.52348507
C        1.48878266      -0.16263314       0.54216198
O        2.00081342       0.93603983      -0.19829078
C        0.61852621       1.05068011       0.12932342
H       -1.75443345      -0.56388890      -1.93221476
H       -1.82654361       1.20267607      -1.43090940
H       -1.15773898       0.73765871       2.19318256
H       -1.92818111      -0.62988777       1.30981881
H        0.38423686      -1.95508289      -0.11382267
H        1.42544697      -1.31527297      -1.39127988
H        2.08835568      -0.47538936       1.38652384
H        0.35542067       2.04215170       0.48075287
15
Frame=7 idx=007364 GeodesicLength=1.1399199845072718 rxn_smarts="[C:1]1([H:8])([H:9])[C:2]([H:10])([H:11])[C:3]12[C:4]([H:12])([H:13])[C@@:5]1([H:14])[O:6][C@@:7]21[H:15]>>[C:1](=[C:3]1[C:4]([H:12])([H:13])[C@:5]2([H:14])[C:2]([H:10])([H:11])[C@@:7]1([H:15])[O:6]2)([H:8])[H:9]"
C       -1.39655202       0.22549513      -1.26111369
C       -0.96054397      -0.11380284       1.50287528
C       -0.16462500       0.10628967      -0.72161970
C        0.82138522      -1.04477377      -0.51828423
C        1.47468223      -0.17277181       0.56443417
O        1.99935386       0.92692466      -0.16783661
C        0.61372268       1.05856508       0.13584404
H       -1.77056697      -0.56338356      -1.90380371
H       -1.83146035       1.20513748      -1.42313969
H       -1.15870014       0.74931073       2.15039559
H       -1.87865831      -0.67416639       1.30066408
H        0.38699017      -1.96260549      -0.12272242
H        1.42290050      -1.30218111      -1.38906705
H        2.08261832      -0.50118329       1.39717719
H        0.35945379       2.06314551       0.45619675
15
Frame=8 idx=007364 GeodesicLength=1.3033452529265201 rxn_smarts="[C:1]1([H:8])([H:9])[C:2]([H:10])([H:11])[C:3]12[C:4]([H:12])([H:13])[C@@:5]1([H:14])[O:6][C@@:7]21[H:15]>>[C:1](=[C:3]1[C:4]([H:12])([H:13])[C@:5]2([H:14])[C:2]([H:10])([H:11])[C@@:7]1([H:15])[O:6]2)([H:8])[H:9]"
C       -1.41242404       0.22610953      -1.23452002
C       -0.94508528      -0.08021347       1.43686005
C       -0.16737336       0.10919074      -0.71333477
C        0.81811355      -1.04296196      -0.51349288
C        1.45913556      -0.18276502       0.58668693
O        1.99712881       0.91821770      -0.13614326
C        0.60829209       1.06677123       0.14125142
H       -1.78668874      -0.56378153      -1.87619428
H       -1.83706102       1.20679758      -1.41686298
H       -1.15515343       0.75777651       2.11070534
H       -1.82481241      -0.71275637       1.29297637
H        0.38860708      -1.96920967      -0.13224269
H        1.42148723      -1.28931058      -1.38608894
H        2.07341996      -0.52675170       1.40883745
H        0.36241399       2.08288701       0.43156225
15
Frame=9 idx=007364 GeodesicLength=1.4670618547635805 rxn_smarts="[C:1]1([H:8])([H:9])[C:2]([H:10])([H:11])[C:3]12[C:4]([H:12])([H:13])[C@@:5]1([H:14])[O:6][C@@:7]21[H:15]>>[C:1](=[C:3]1[C:4]([H:12])([H:13])[C@:5]2([H:14])[C:2]([H:10])([H:11])[C@@:7]1([H:15])[O:6]2)([H:8])[H:9]"
C       -1.42749201       0.22686739      -1.21022685
C       -0.93098265      -0.04916770       1.37320335
C       -0.16970169       0.11249087      -0.70725073
C        0.81466570      -1.04085035      -0.50899240
C        1.44227418      -0.19267707       0.60885140
O        1.99387281       0.90986449      -0.10345419
C        0.60222810       1.07505879       0.14572488
H       -1.80257166      -0.56483190      -1.84928696
H       -1.84340093       1.20761685      -1.41167153
H       -1.14754344       0.76320953       2.07331300
H       -1.76737645      -0.74534377       1.28602884
H        0.38939442      -1.97487134      -0.14210975
H        1.42095942      -1.27646102      -1.38241982
H        2.06123576      -0.55212355       1.42129983
H        0.36443845       2.10121878       0.40699092
15
Frame=10 idx=007364 GeodesicLength=1.63094971195989 rxn_smarts="[C:1]1([H:8])([H:9])[C:2]([H:10])([H:11])[C:3]12[C:4]([H:12])([H:13])[C@@:5]1([H:14])[O:6][C@@:7]21[H:15]>>[C:1](=[C:3]1[C:4]([H:12])([H:13])[C@:5]2([H:14])[C:2]([H:10])([H:11])[C@@:7]1([H:15])[O:6]2)([H:8])[H:9]"
C       -1.44185174       0.22761481      -1.18785341
C       -0.91793111      -0.02057862       1.31181304
C       -0.17160904       0.11606273      -0.70298430
C        0.81125368      -1.03863122      -0.50486662
C        1.42442817      -0.20257030       0.63071673
O        1.98963656       0.90195464      -0.06994733
C        0.59565853       1.08344254       0.14941040
H       -1.81816238      -0.56667693      -1.82316708
H       -1.85049660       1.20769198      -1.40704996
H       -1.13660712       0.76613123       2.03803493
H       -1.70784596      -0.77179827       1.27961074
H        0.38970448      -1.97998622      -0.15247506
H        1.42141852      -1.26375783      -1.37825827
H        2.04671732      -0.57725947       1.43418792
H        0.36568668       2.11836091       0.38282825
15
Frame=11 idx=007364 GeodesicLength=1.7950845814457468 rxn_smarts="[C:1]1([H:8])([H:9])[C:2]([H:10])([H:11])[C:3]12[C:4]([H:12])([H:13])[C@@:5]1([H:14])[O:6][C@@:7]21[H:15]>>[C:1](=[C:3]1[C:4]([H:12])([H:13])[C@:5]2([H:14])[C:2]([H:10])([H:11])[C@@:7]1([H:15])[O:6]2)([H:8])[H:9]"
C       -1.45553530       0.22826278      -1.16702780
C       -0.90535394       0.00555632       1.25284257
C       -0.17314893       0.11977116      -0.70019585
C        0.80795258      -1.03631647      -0.50107238
C        1.40584080      -0.21250280       0.65218028
O        1.98436522       0.89444774      -0.03585820
C        0.58868271       1.09178849       0.15245538
H       -1.83335264      -0.56918265      -1.79765758
H       -1.85834117       1.20704790      -1.40251261
H       -1.12319332       0.76694050       2.00408052
H       -1.64721463      -0.79220471       1.27327642
H        0.38980175      -1.98459276      -0.16320878
H        1.42272996      -1.25112041      -1.37371765
H        2.03043576      -0.60218593       1.44720932
H        0.36633115       2.13429084       0.35920637
15
Frame=12 idx=007364 GeodesicLength=1.95936303171143 rxn_smarts="[C:1]1([H:8])([H:9])[C:2]([H:10])([H:11])[C:3]12[C:4]([H:12])([H:13])[C@@:5]1([H:14])[O:6][C@@:7]21[H:15]>>[C:1](=[C:3]1[C:4]([H:12])([H:13])[C@:5]2([H:14])[C:2]([H:10])([H:11])[C@@:7]1([H:15])[O:6]2)([H:8])[H:9]"
C       -1.46859862       0.22872760      -1.14738619
C       -0.89283535       0.02930127       1.19638062
C       -0.17432156       0.12351125      -0.69859683
C        0.80488422      -1.03397829      -0.49761841
C        1.38681500      -0.22252642       0.67313259
O        1.97815417       0.88734047      -0.00139780
C        0.58145559       1.10004716       0.15498743
H       -1.84812087      -0.57230512      -1.77261941
H       -1.86694299       1.20575599      -1.39757615
H       -1.10826526       0.76622998       1.97084397
H       -1.58656850      -0.80689317       1.26671111
H        0.38991556      -1.98882569      -0.17427719
H        1.42486475      -1.23856948      -1.36894773
H        2.01299376      -0.62691785       1.46007672
H        0.36657010       2.14910231       0.33628728
15
Frame=13 idx=007364 GeodesicLength=2.1239764043677045 rxn_smarts="[C:1]1([H:8])([H:9])[C:2]([H:10])([H:11])[C:3]12[C:4]([H:12])([H:13])[C@@:5]1([H:14])[O:6][C@@:7]21[H:15]>>[C:1](=[C:3]1[C:4]([H:12])([H:13])[C@:5]2([H:14])[C:2]([H:10])([H:11])[C@@:7]1([H:15])[O:6]2)([H:8])[H:9]"
C       -1.48102462       0.22897373      -1.12858210
C       -0.87987544       0.05073136       1.14247339
C       -0.17512480       0.12719215      -0.69792989
C        0.80210674      -1.03162529      -0.49443505
C        1.36759889      -0.23267518       0.69349826
O        1.97100074       0.88056782       0.03320670
C        0.57408999       1.10811967       0.15708946
H       -1.86237969      -0.57586719      -1.74786524
H       -1.87628704       1.20387269      -1.39176608
H       -1.09265982       0.76448503       1.93770438
H       -1.52681461      -0.81634034       1.25946856
H        0.39023986      -1.99267321      -0.18551326
H        1.42766150      -1.22609678      -1.36398234
H        1.99492880      -0.65143931       1.47254019
H        0.36653950       2.16277486       0.31409302
15
Frame=14 idx=007364 GeodesicLength=2.2886974551711647 rxn_smarts="[C:1]1([H:8])([H:9])[C:2]([H:10])([H:11])[C:3]12[C:4]([H:12])([H:13])[C@@:5]1([H:14])[O:6][C@@:7]21[H:15]>>[C:1](=[C:3]1[C:4]([H:12])([H:13])[C@:5]2([H:14])[C:2]([H:10])([H:11])[C@@:7]1([H:15])[O:6]2)([H:8])[H:9]"
C       -1.49285437       0.22895624      -1.11035860
C       -0.86634597       0.07000228       1.09102978
C       -0.17552177       0.13077563      -0.69804676
C        0.79971904      -1.02933823      -0.49154076
C        1.34841255      -0.24296906       0.71319743
O        1.96305383       0.87415164       0.06777738
C        0.56671774       1.11604238       0.15879134
H       -1.87612280      -0.57987907      -1.72332920
H       -1.88630928       1.20150686      -1.38481467
H       -1.07697193       0.76222501       1.90452976
H       -1.46885829      -0.82116421       1.25146301
H        0.39088286      -1.99628389      -0.19690240
H        1.43116438      -1.21377564      -1.35891807
H        1.97664781      -0.67573482       1.48441076
H        0.36638621       2.17548488       0.29271099
15
Frame=15 idx=007364 GeodesicLength=2.45360260336348 rxn_smarts="[C:1]1([H:8])([H:9])[C:2]([H:10])([H:11])[C:3]12[C:4]([H:12])([H:13])[C@@:5]1([H:14])[O:6][C@@:7]21[H:15]>>[C:1](=[C:3]1[C:4]([H:12])([H:13])[C@:5]2([H:14])[C:2]([H:10])([H:11])[C@@:7]1([H:15])[O:6]2)([H:8])[H:9]"
C       -1.50406281       0.22867406      -1.09251655
C       -0.85206656       0.08731209       1.04191519
C       -0.17549708       0.13423386      -0.69884404
C        0.79773104      -1.02711102      -0.48889100
C        1.32935654      -0.25340196       0.73220481
O        1.95432422       0.86804302       0.10217089
C        0.55940563       1.12379148       0.16008709
H       -1.88929662      -0.58423896      -1.69889033
H       -1.89689841       1.19872124      -1.37656794
H       -1.06149908       0.75971086       1.87123500
H       -1.41325922      -0.82202004       1.24252076
H        0.39189706      -1.99963002      -0.20833362
H        1.43528204      -1.20161300      -1.35375388
H        1.95838815      -0.69975288       1.49559096
H        0.36619512       2.18728126       0.27207267
15
Frame=16 idx=007364 GeodesicLength=2.618667641632988 rxn_smarts="[C:1]1([H:8])([H:9])[C:2]([H:10])([H:11])[C:3]12[C:4]([H:12])([H:13])[C@@:5]1([H:14])[O:6][C@@:7]21[H:15]>>[C:1](=[C:3]1[C:4]([H:12])([H:13])[C@:5]2([H:14])[C:2]([H:10])([H:11])[C@@:7]1([H:15])[O:6]2)([H:8])[H:9]"
C       -1.51466145       0.22814419      -1.07492096
C       -0.83699396       0.10290506       0.99494764
C       -0.17503980       0.13755880      -0.70026598
C        0.79615278      -1.02496512      -0.48645292
C        1.31050558      -0.26395728       0.75051748
O        1.94487182       0.86222318       0.13629296
C        0.55221795       1.13139654       0.16095361
H       -1.90190733      -0.58888364      -1.67447958
H       -1.90797226       1.19560555      -1.36696638
H       -1.04639635       0.75711905       1.83787922
H       -1.36041345      -0.81959015       1.23255235
H        0.39329313      -2.00273989      -0.21972753
H        1.43998123      -1.18966557      -1.34848141
H        1.94032056      -0.72343839       1.50604585
H        0.36604153       2.19828766       0.25210565
