14
Frame=0 idx=007120 GeodesicLength=0.0 rxn_smarts="[N:1](=[C:2]1\[O:3][C:4]([H:9])([H:10])[C@@:5]2([H:11])[C:6]([H:12])([H:13])[C@@:7]12[H:14])\[H:8]>>[N:1](=[C:2]1\[O:3][C:4]([H:9])([H:10])[C@:5]([C:6]([H:12])([H:13])[H:14])([H:11])[C:7]1)\[H:8]"
N        1.87049057      -1.67193073       0.64484452
C        1.10950470      -0.69028799       0.44882178
O        1.40820396       0.34140080      -0.40852198
C        0.39080399       1.33286095      -0.35495211
C       -0.74339419       0.67410091       0.41112225
C       -1.39439328      -0.51012817      -0.33571108
C       -0.21189376      -0.47193374       1.15587353
H        2.71800481      -1.58643965       0.08561150
H        0.13778146       1.62579998      -1.37582908
H        0.76212708       2.20938595       0.18225216
H       -1.45279810       1.33730236       0.89290936
H       -1.04416006      -0.60374802      -1.35984121
H       -2.47170642      -0.52822206      -0.21163574
H       -1.07857076      -1.45816062       0.22505610
14
Frame=1 idx=007120 GeodesicLength=0.06175949370467619 rxn_smarts="[N:1](=[C:2]1\[O:3][C:4]([H:9])([H:10])[C@@:5]2([H:11])[C:6]([H:12])([H:13])[C@@:7]12[H:14])\[H:8]>>[N:1](=[C:2]1\[O:3][C:4]([H:9])([H:10])[C@:5]([C:6]([H:12])([H:13])[H:14])([H:11])[C:7]1)\[H:8]"
N        1.87805038      -1.67027017       0.64126377
C        1.11351184      -0.69145682       0.44383963
O        1.40963753       0.34264850      -0.41074657
C        0.39015896       1.33243625      -0.35512576
C       -0.74345543       0.67229220       0.41034450
C       -1.39841112      -0.50757353      -0.33677188
C       -0.21030416      -0.48093422       1.14401970
H        2.73060637      -1.57653493       0.09107043
H        0.13557525       1.62610627      -1.37536493
H        0.76155937       2.20841343       0.18295130
H       -1.44784786       1.33268429       0.90318740
H       -1.03998694      -0.61638274      -1.35663498
H       -2.47776709      -0.50528756      -0.23101776
H       -1.10132709      -1.46614098       0.24898514
14
Frame=2 idx=007120 GeodesicLength=0.12349352363234048 rxn_smarts="[N:1](=[C:2]1\[O:3][C:4]([H:9])([H:10])[C@@:5]2([H:11])[C:6]([H:12])([H:13])[C@@:7]12[H:14])\[H:8]>>[N:1](=[C:2]1\[O:3][C:4]([H:9])([H:10])[C@:5]([C:6]([H:12])([H:13])[H:14])([H:11])[C:7]1)\[H:8]"
N        1.88560831      -1.66843055       0.63784975
C        1.11769942      -0.69227782       0.43926196
O        1.41120952       0.34418718      -0.41262928
C        0.38948275       1.33213500      -0.35518878
C       -0.74357201       0.67046333       0.40952806
C       -1.40217655      -0.50513749      -0.33800735
C       -0.20878527      -0.48988444       1.13205593
H        2.74221552      -1.56744375       0.09526522
H        0.13347032       1.62642799      -1.37485313
H        0.76071696       2.20765164       0.18378927
H       -1.44310848       1.32779091       0.91324161
H       -1.03551959      -0.62932918      -1.35325572
H       -2.48291737      -0.48282036      -0.25097160
H       -1.12432355      -1.47333247       0.27391407
14
Frame=3 idx=007120 GeodesicLength=0.18516116260860302 rxn_smarts="[N:1](=[C:2]1\[O:3][C:4]([H:9])([H:10])[C@@:5]2([H:11])[C:6]([H:12])([H:13])[C@@:7]12[H:14])\[H:8]>>[N:1](=[C:2]1\[O:3][C:4]([H:9])([H:10])[C@:5]([C:6]([H:12])([H:13])[H:14])([H:11])[C:7]1)\[H:8]"
N        1.89309594      -1.66653213       0.63444125
C        1.12202939      -0.69283292       0.43498857
O        1.41287316       0.34593906      -0.41427119
C        0.38877601       1.33191830      -0.35516462
C       -0.74372469       0.66858799       0.40867050
C       -1.40574355      -0.50279179      -0.33942998
C       -0.20732868      -0.49886465       1.11990556
H        2.75315450      -1.55888885       0.09861446
H        0.13143765       1.62677861      -1.37429158
H        0.75965172       2.20702386       0.18475412
H       -1.43851398       1.32261191       0.92310664
H       -1.03090350      -0.64248696      -1.34974327
H       -2.48720225      -0.46079014      -0.27136323
H       -1.14760171      -1.47967228       0.29978276
14
Frame=4 idx=007120 GeodesicLength=0.24683878393807748 rxn_smarts="[N:1](=[C:2]1\[O:3][C:4]([H:9])([H:10])[C@@:5]2([H:11])[C:6]([H:12])([H:13])[C@@:7]12[H:14])\[H:8]>>[N:1](=[C:2]1\[O:3][C:4]([H:9])([H:10])[C@:5]([C:6]([H:12])([H:13])[H:14])([H:11])[C:7]1)\[H:8]"
N        1.90056090      -1.66451710       0.63116997
C        1.12652210      -0.69308081       0.43109773
O        1.41464636       0.34793048      -0.41561234
C        0.38803823       1.33180084      -0.35503080
C       -0.74393353       0.66667029       0.40776728
C       -1.40909514      -0.50055877      -0.34106363
C       -0.20595696      -0.50785737       1.10758590
H        2.76332062      -1.55102217       0.10081107
H        0.12950181       1.62715501      -1.37367291
H        0.75833931       2.20655921       0.18587680
H       -1.43412391       1.31714437       0.93276275
H       -1.02607545      -0.65589137      -1.34608946
H       -2.49061270      -0.43925660      -0.29230158
H       -1.17113164      -1.48507601       0.32669923
14
Frame=5 idx=007120 GeodesicLength=0.3084020305470637 rxn_smarts="[N:1](=[C:2]1\[O:3][C:4]([H:9])([H:10])[C@@:5]2([H:11])[C:6]([H:12])([H:13])[C@@:7]12[H:14])\[H:8]>>[N:1](=[C:2]1\[O:3][C:4]([H:9])([H:10])[C@:5]([C:6]([H:12])([H:13])[H:14])([H:11])[C:7]1)\[H:8]"
N        1.90834649      -1.66162401       0.62919333
C        1.13134519      -0.69251702       0.42830761
O        1.41671355       0.35056680      -0.41605165
C        0.38723512       1.33197509      -0.35463841
C       -0.74430469       0.66477924       0.40674915
C       -1.41187855      -0.49863102      -0.34297443
C       -0.20472312      -0.51656899       1.09536432
H        2.77108236      -1.54560832       0.09941543
H        0.12786147       1.62753511      -1.37296587
H        0.75640139       2.20661190       0.18726758
H       -1.43033222       1.31140282       0.94182549
H       -1.02040909      -0.66974766      -1.34224686
H       -2.49283269      -0.41868399      -0.31403602
H       -1.19450522      -1.48948994       0.35479032
14
Frame=6 idx=007120 GeodesicLength=0.3699759915951423 rxn_smarts="[N:1](=[C:2]1\[O:3][C:4]([H:9])([H:10])[C@@:5]2([H:11])[C:6]([H:12])([H:13])[C@@:7]12[H:14])\[H:8]>>[N:1](=[C:2]1\[O:3][C:4]([H:9])([H:10])[C@:5]([C:6]([H:12])([H:13])[H:14])([H:11])[C:7]1)\[H:8]"
N        1.91585755      -1.65921057       0.62639968
C        1.13616938      -0.69209635       0.42527427
O        1.41870683       0.35305682      -0.41674910
C        0.38642818       1.33205556      -0.35426637
C       -0.74463833       0.66273759       0.40572264
C       -1.41477757      -0.49666318      -0.34510034
C       -0.20352738      -0.52563885       1.08265234
H        2.77959245      -1.53937697       0.09909817
H        0.12614679       1.62798025      -1.37221683
H        0.75454631       2.20646519       0.18874798
H       -1.42639634       1.30531808       0.95100171
H       -1.01519155      -0.68353490      -1.33840385
H       -2.49450021      -0.39829722      -0.33593101
H       -1.21841610      -1.49279546       0.38377070
14
Frame=7 idx=007120 GeodesicLength=0.43155053377219504 rxn_smarts="[N:1](=[C:2]1\[O:3][C:4]([H:9])([H:10])[C@@:5]2([H:11])[C:6]([H:12])([H:13])[C@@:7]12[H:14])\[H:8]>>[N:1](=[C:2]1\[O:3][C:4]([H:9])([H:10])[C@:5]([C:6]([H:12])([H:13])[H:14])([H:11])[C:7]1)\[H:8]"
N        1.92309588      -1.65735012       0.62262007
C        1.14095457      -0.69193120       0.42182634
O        1.42058602       0.35531078      -0.41785054
C        0.38562574       1.33199340      -0.35394280
C       -0.74491063       0.66050093       0.40469214
C       -1.41787216      -0.49462941      -0.34745457
C       -0.20236911      -0.53517016       1.06933959
H        2.78913345      -1.53200010       0.10038448
H        0.12431737       1.62850705      -1.37142144
H        0.75285367       2.20602457       0.19031671
H       -1.42222005       1.29883763       0.96037630
H       -1.01059369      -0.69718017      -1.33463292
H       -2.49570820      -0.37800887      -0.35788217
H       -1.24289287      -1.49490435       0.41362881
14
Frame=8 idx=007120 GeodesicLength=0.4930750144666123 rxn_smarts="[N:1](=[C:2]1\[O:3][C:4]([H:9])([H:10])[C@@:5]2([H:11])[C:6]([H:12])([H:13])[C@@:7]12[H:14])\[H:8]>>[N:1](=[C:2]1\[O:3][C:4]([H:9])([H:10])[C@:5]([C:6]([H:12])([H:13])[H:14])([H:11])[C:7]1)\[H:8]"
N        1.93093197      -1.65410824       0.62108855
C        1.14614466      -0.69069024       0.41995589
O        1.42284633       0.35841207      -0.41764658
C        0.38472621       1.33231527      -0.35324358
C       -0.74542852       0.65830544       0.40348959
C       -1.42020542      -0.49302629      -0.35018772
C       -0.20140320      -0.54430691       1.05623779
H        2.79536172      -1.52816543       0.09632294
H        0.12291198       1.62902606      -1.37049219
H        0.75028700       2.20627599       0.19227230
H       -1.41891786       1.29207254       0.96893028
H       -1.00479748      -0.71133814      -1.33068187
H       -2.49556296      -0.35899540      -0.38086569
H       -1.26689444      -1.49577672       0.44482029
14
Frame=9 idx=007120 GeodesicLength=0.5545925275421034 rxn_smarts="[N:1](=[C:2]1\[O:3][C:4]([H:9])([H:10])[C@@:5]2([H:11])[C:6]([H:12])([H:13])[C@@:7]12[H:14])\[H:8]>>[N:1](=[C:2]1\[O:3][C:4]([H:9])([H:10])[C@:5]([C:6]([H:12])([H:13])[H:14])([H:11])[C:7]1)\[H:8]"
N        1.93883104      -1.65082276       0.61958165
C        1.15137346      -0.68943091       0.41811545
O        1.42509061       0.36148979      -0.41747608
C        0.38380879       1.33259450      -0.35249054
C       -0.74596281       0.65593512       0.40222959
C       -1.42254625      -0.49148001      -0.35323277
C       -0.20052456      -0.55377143       1.04265435
H        2.80158524      -1.52434255       0.09216507
H        0.12151832       1.62962048      -1.36948474
H        0.74765646       2.20641756       0.19441789
H       -1.41562857       1.28490398       0.97745886
H       -0.99928513      -0.72540501      -1.32683884
H       -2.49481284      -0.34039330      -0.40405680
H       -1.29110374      -1.49531546       0.47695692
14
Frame=10 idx=007120 GeodesicLength=0.6161173853033483 rxn_smarts="[N:1](=[C:2]1\[O:3][C:4]([H:9])([H:10])[C@@:5]2([H:11])[C:6]([H:12])([H:13])[C@@:7]12[H:14])\[H:8]>>[N:1](=[C:2]1\[O:3][C:4]([H:9])([H:10])[C@:5]([C:6]([H:12])([H:13])[H:14])([H:11])[C:7]1)\[H:8]"
N        1.94692814      -1.64727212       0.61844739
C        1.15665349      -0.68808561       0.41641685
O        1.42733391       0.36459872      -0.41723894
C        0.38285804       1.33285432      -0.35165024
C       -0.74653467       0.65338239       0.40089106
C       -1.42484003      -0.49002579      -0.35662176
C       -0.19974922      -0.56354434       1.02859722
H        2.80747232      -1.52089715       0.08740478
H        0.12016311       1.63029672      -1.36837805
H        0.74488671       2.20648524       0.19679490
H       -1.41241789       1.27730238       0.98590022
H       -0.99396577      -0.73938331      -1.32313132
H       -2.49341839      -0.32227342      -0.42751133
H       -1.31536975      -1.49343803       0.51007920
14
Frame=11 idx=007120 GeodesicLength=0.6776652593064568 rxn_smarts="[N:1](=[C:2]1\[O:3][C:4]([H:9])([H:10])[C@@:5]2([H:11])[C:6]([H:12])([H:13])[C@@:7]12[H:14])\[H:8]>>[N:1](=[C:2]1\[O:3][C:4]([H:9])([H:10])[C@:5]([C:6]([H:12])([H:13])[H:14])([H:11])[C:7]1)\[H:8]"
N        1.95486538      -1.64437190       0.61624133
C        1.16172072      -0.68742248       0.41374408
O        1.42931202       0.36712128      -0.41788550
C        0.38193861       1.33280960      -0.35094963
C       -0.74700204       0.65049987       0.39955272
C       -1.42764820      -0.48841121      -0.36030702
C       -0.19908005      -0.57413997       1.01355427
H        2.81532409      -1.51538655       0.08565455
H        0.11858166       1.63113427      -1.36721025
H        0.74255989       2.20594691       0.19927255
H       -1.40869330       1.26917622       0.99481592
H       -0.98989286      -0.75287104      -1.31980502
H       -2.49195592      -0.30402680      -0.45064234
H       -1.34003000      -1.49005820       0.54396434
14
Frame=12 idx=007120 GeodesicLength=0.7393085273889398 rxn_smarts="[N:1](=[C:2]1\[O:3][C:4]([H:9])([H:10])[C@@:5]2([H:11])[C:6]([H:12])([H:13])[C@@:7]12[H:14])\[H:8]>>[N:1](=[C:2]1\[O:3][C:4]([H:9])([H:10])[C@:5]([C:6]([H:12])([H:13])[H:14])([H:11])[C:7]1)\[H:8]"
N        1.96264387      -1.64232016       0.61259074
C        1.16636108      -0.68790484       0.40943270
O        1.43077920       0.36864658      -0.41995010
C        0.38103893       1.33220179      -0.35050448
C       -0.74723963       0.64714110       0.39821795
C       -1.43125829      -0.48641180      -0.36428803
C       -0.19846395      -0.58585277       0.99712432
H        2.82620292      -1.50648242       0.08879127
H        0.11653181       1.63212609      -1.36595022
H        0.74096831       2.20430354       0.20179382
H       -1.40399046       1.26034320       1.00445062
H       -0.98774513      -0.76549886      -1.31707277
H       -2.49068880      -0.28514200      -0.47305123
H       -1.36513987      -1.48514944       0.57841540
14
Frame=13 idx=007120 GeodesicLength=0.8009935429355161 rxn_smarts="[N:1](=[C:2]1\[O:3][C:4]([H:9])([H:10])[C@@:5]2([H:11])[C:6]([H:12])([H:13])[C@@:7]12[H:14])\[H:8]>>[N:1](=[C:2]1\[O:3][C:4]([H:9])([H:10])[C@:5]([C:6]([H:12])([H:13])[H:14])([H:11])[C:7]1)\[H:8]"
N        1.97116239      -1.63936117       0.61044791
C        1.17094310      -0.68851057       0.40499892
O        1.43220315       0.37006334      -0.42212840
C        0.38012222       1.33151994      -0.34997449
C       -0.74753783       0.64351126       0.39678088
C       -1.43499231      -0.48446575      -0.36871564
C       -0.19807980      -0.59805713       0.97995704
H        2.83655478      -1.49820043       0.09108128
H        0.11451595       1.63329335      -1.36454533
H        0.73934884       2.20245157       0.20464425
H       -1.39928653       1.25094002       1.01409891
H       -0.98610062      -0.77778027      -1.31480884
H       -2.48906015      -0.26664263      -0.49552733
H       -1.38979318      -1.47876155       0.61369084
14
Frame=14 idx=007120 GeodesicLength=0.8626621403917866 rxn_smarts="[N:1](=[C:2]1\[O:3][C:4]([H:9])([H:10])[C@@:5]2([H:11])[C:6]([H:12])([H:13])[C@@:7]12[H:14])\[H:8]>>[N:1](=[C:2]1\[O:3][C:4]([H:9])([H:10])[C@:5]([C:6]([H:12])([H:13])[H:14])([H:11])[C:7]1)\[H:8]"
N        1.98032188      -1.63585131       0.60923774
C        1.17519730      -0.68986880       0.39950916
O        1.43331079       0.37084397      -0.42518471
C        0.37921633       1.33048727      -0.34953365
C       -0.74775474       0.63946551       0.39527683
C       -1.43927051      -0.48231929      -0.37356629
C       -0.19790683      -0.61114702       0.96156492
H        2.84787255      -1.48879356       0.09511802
H        0.11228335       1.63467361      -1.36298736
H        0.73814939       2.19986404       0.20772888
H       -1.39403000       1.24082808       1.02415976
H       -0.98585143      -0.78927338      -1.31328480
H       -2.48750487      -0.24797334      -0.51750192
H       -1.41403321      -1.47093577       0.64946342
14
Frame=15 idx=007120 GeodesicLength=0.9244427209307584 rxn_smarts="[N:1](=[C:2]1\[O:3][C:4]([H:9])([H:10])[C@@:5]2([H:11])[C:6]([H:12])([H:13])[C@@:7]12[H:14])\[H:8]>>[N:1](=[C:2]1\[O:3][C:4]([H:9])([H:10])[C@:5]([C:6]([H:12])([H:13])[H:14])([H:11])[C:7]1)\[H:8]"
N        1.99046149      -1.63121774       0.60991999
C        1.17910108      -0.69200849       0.39292455
O        1.43411596       0.37099499      -0.42911047
C        0.37832881       1.32911047      -0.34916375
C       -0.74791147       0.63498004       0.39367984
C       -1.44412463      -0.47994408      -0.37890491
C       -0.19800723      -0.62514309       0.94187193
H        2.85971645      -1.47875428       0.10024952
H        0.10986342       1.63632115      -1.36125440
H        0.73737867       2.19651763       0.21110512
H       -1.38823643       1.22994406       1.03460239
H       -0.98703729      -0.79985557      -1.31264891
H       -2.48611843      -0.22912792      -0.53892900
H       -1.43753041      -1.46181717       0.68565811
14
Frame=16 idx=007120 GeodesicLength=0.9863298610806387 rxn_smarts="[N:1](=[C:2]1\[O:3][C:4]([H:9])([H:10])[C@@:5]2([H:11])[C:6]([H:12])([H:13])[C@@:7]12[H:14])\[H:8]>>[N:1](=[C:2]1\[O:3][C:4]([H:9])([H:10])[C@:5]([C:6]([H:12])([H:13])[H:14])([H:11])[C:7]1)\[H:8]"
N        2.00185329      -1.62483704       0.61346731
C        1.18259722      -0.69500728       0.38512196
O        1.43459745       0.37048095      -0.43395261
C        0.37746472       1.32737027      -0.34885757
C       -0.74800878       0.63002546       0.39196794
C       -1.44959034      -0.47729581      -0.38477965
C       -0.19842229      -0.64006898       0.92075461
H        2.87171321      -1.46848975       0.10598503
H        0.10726594       1.63827104      -1.35931117
H        0.73706814       2.19234989       0.21481701
H       -1.38186670       1.21822056       1.04542850
H       -0.98974678      -0.80937219      -1.31306160
H       -2.48500473      -0.21005576      -0.55969421
H       -1.45992035      -1.45159135       0.72211445
