16
Frame=0 idx=001869 GeodesicLength=0.0 rxn_smarts="[C:1]([C@@:2]1([H:10])[C:3]([H:11])([H:12])[C@:4]1([C:5]([O:6][H:16])([H:14])[H:15])[H:13])([H:7])([H:8])[H:9]>>[C:1]([C@@:2]1([H:10])[C:3]([H:11])([H:12])[C:4]1=[C:5]([H:14])[H:15])([H:7])([H:8])[H:9].[O:6]([H:13])[H:16]"
C       -1.75236490      -0.08967977       0.99074328
C       -1.03371374       0.40369783      -0.23918599
C       -0.06761515       1.57162033      -0.12862457
C        0.42293129       0.20210737      -0.40816517
C        1.34558318      -0.64386538       0.23473936
O        2.12938376      -1.15502475      -1.36614199
H       -2.02982713      -1.14278110       0.89215648
H       -1.11501691       0.00278946       1.87439940
H       -2.66827709       0.47709507       1.17457295
H       -1.63468092       0.38408919      -1.14479857
H       -0.05477570       2.30758798      -0.92464838
H        0.07073580       1.98943099       0.86432981
H        1.21427685      -0.38816867      -1.47634931
H        2.25046143      -0.24755916       0.68127183
H        1.04698257      -1.62188837       0.60424032
H        1.87591661      -2.04945106      -1.62853941
16
Frame=1 idx=001869 GeodesicLength=0.058350247212612324 rxn_smarts="[C:1]([C@@:2]1([H:10])[C:3]([H:11])([H:12])[C@:4]1([C:5]([O:6][H:16])([H:14])[H:15])[H:13])([H:7])([H:8])[H:9]>>[C:1]([C@@:2]1([H:10])[C:3]([H:11])([H:12])[C:4]1=[C:5]([H:14])[H:15])([H:7])([H:8])[H:9].[O:6]([H:13])[H:16]"
C       -1.75186227      -0.09845865       0.98184462
C       -1.02404400       0.40222366      -0.23968489
C       -0.06690003       1.57626662      -0.12029540
C        0.43566427       0.21149369      -0.39504826
C        1.36135060      -0.63495402       0.24189396
O        2.10900871      -1.17671198      -1.38221032
H       -2.02119664      -1.15317406       0.87870331
H       -1.12482727      -0.00295435       1.87237061
H       -2.67311136       0.46245758       1.15644219
H       -1.61436900       0.37736268      -1.15204527
H       -0.05010827       2.31108068      -0.91721589
H        0.06289048       1.99333693       0.87402404
H        1.20940844      -0.37081584      -1.48368396
H        2.27380990      -0.23470818       0.66957274
H        1.05489650      -1.59792856       0.64289336
H        1.81938994      -2.06451619      -1.62756085
16
Frame=2 idx=001869 GeodesicLength=0.11669098981075468 rxn_smarts="[C:1]([C@@:2]1([H:10])[C:3]([H:11])([H:12])[C@:4]1([C:5]([O:6][H:16])([H:14])[H:15])[H:13])([H:7])([H:8])[H:9]>>[C:1]([C@@:2]1([H:10])[C:3]([H:11])([H:12])[C:4]1=[C:5]([H:14])[H:15])([H:7])([H:8])[H:9].[O:6]([H:13])[H:16]"
C       -1.75112707      -0.10725134       0.97288643
C       -1.01435634       0.40065545      -0.24023819
C       -0.06604194       1.58056141      -0.11222412
C        0.44818337       0.22049540      -0.38228601
C        1.37674915      -0.62651844       0.24888084
O        2.08757467      -1.19784333      -1.39787971
H       -2.01255118      -1.16344770       0.86524484
H       -1.13426481      -0.00904989       1.87004186
H       -2.67739329       0.44802214       1.13841226
H       -1.59411456       0.37083014      -1.15910745
H       -0.04526301       2.31429230      -0.90995377
H        0.05542666       1.99680515       0.88339106
H        1.20429114      -0.35359698      -1.49106629
H        2.29627343      -0.22249334       0.65799623
H        1.06331495      -1.57350435       0.68113753
H        1.76329884      -2.07795662      -1.62523550
16
Frame=3 idx=001869 GeodesicLength=0.17501665613380965 rxn_smarts="[C:1]([C@@:2]1([H:10])[C:3]([H:11])([H:12])[C@:4]1([C:5]([O:6][H:16])([H:14])[H:15])[H:13])([H:7])([H:8])[H:9]>>[C:1]([C@@:2]1([H:10])[C:3]([H:11])([H:12])[C:4]1=[C:5]([H:14])[H:15])([H:7])([H:8])[H:9].[O:6]([H:13])[H:16]"
C       -1.75018299      -0.11601418       0.96391794
C       -1.00468963       0.39899483      -0.24082943
C       -0.06504299       1.58449238      -0.10443534
C        0.46045674       0.22907995      -0.36990075
C        1.39172463      -0.61861132       0.25568913
O        2.06526797      -1.21831041      -1.41316712
H       -2.00394901      -1.17355693       0.85184593
H       -1.14330904      -0.01545789       1.86744561
H       -2.68113624       0.43386502       1.12056146
H       -1.57399622       0.36448863      -1.16595549
H       -0.04025412       2.31719546      -0.90289975
H        0.04837510       1.99984208       0.89239971
H        1.19885507      -0.33656977      -1.49852403
H        2.31776063      -0.21094867       0.64667563
H        1.07212765      -1.54869341       0.71886453
H        1.70799246      -2.08979578      -1.62168803
16
Frame=4 idx=001869 GeodesicLength=0.23337005721595425 rxn_smarts="[C:1]([C@@:2]1([H:10])[C:3]([H:11])([H:12])[C@:4]1([C:5]([O:6][H:16])([H:14])[H:15])[H:13])([H:7])([H:8])[H:9]>>[C:1]([C@@:2]1([H:10])[C:3]([H:11])([H:12])[C:4]1=[C:5]([H:14])[H:15])([H:7])([H:8])[H:9].[O:6]([H:13])[H:16]"
C       -1.74905588      -0.12473123       0.95497621
C       -0.99506855       0.39724506      -0.24145308
C       -0.06390041       1.58807588      -0.09693798
C        0.47247163       0.23723579      -0.35790709
C        1.40624921      -0.61125940       0.26232476
O        2.04223699      -1.23808091      -1.42811095
H       -1.99543082      -1.18350339       0.83854764
H       -1.15196417      -0.02215016       1.86462862
H       -2.68437110       0.42001714       1.10293960
H       -1.55406250       0.35833341      -1.17259335
H       -0.03508269       2.31980721      -0.89607924
H        0.04175142       2.00248156       0.90105307
H        1.19306278      -0.31975316      -1.50609203
H        2.33823545      -0.20006110       0.63571157
H        1.08125215      -1.52353169       0.75606079
H        1.65367649      -2.10012501      -1.61706855
16
Frame=5 idx=001869 GeodesicLength=0.29164002074724854 rxn_smarts="[C:1]([C@@:2]1([H:10])[C:3]([H:11])([H:12])[C@:4]1([C:5]([O:6][H:16])([H:14])[H:15])[H:13])([H:7])([H:8])[H:9]>>[C:1]([C@@:2]1([H:10])[C:3]([H:11])([H:12])[C:4]1=[C:5]([H:14])[H:15])([H:7])([H:8])[H:9].[O:6]([H:13])[H:16]"
C       -1.74775950      -0.13335635       0.94607448
C       -0.98552899       0.39541337      -0.24208593
C       -0.06262557       1.59126867      -0.08973190
C        0.48420047       0.24493949      -0.34631957
C        1.42028944      -0.60448257       0.26875914
O        2.01862276      -1.25708136      -1.44273432
H       -1.98704071      -1.19320672       0.82536136
H       -1.16019694      -0.02910522       1.86156430
H       -2.68710246       0.40654861       1.08559805
H       -1.53439421       0.35238499      -1.17895923
H       -0.02978437       2.32206494      -0.88946782
H        0.03557485       2.00467077       0.90932360
H        1.18683618      -0.30315805      -1.51376462
H        2.35765752      -0.18984952       0.62515864
H        1.09061357      -1.49803114       0.79260762
H        1.60063797      -2.10901991      -1.61138381
16
Frame=6 idx=001869 GeodesicLength=0.34999494842212703 rxn_smarts="[C:1]([C@@:2]1([H:10])[C:3]([H:11])([H:12])[C@:4]1([C:5]([O:6][H:16])([H:14])[H:15])[H:13])([H:7])([H:8])[H:9]>>[C:1]([C@@:2]1([H:10])[C:3]([H:11])([H:12])[C:4]1=[C:5]([H:14])[H:15])([H:7])([H:8])[H:9].[O:6]([H:13])[H:16]"
C       -1.74630331      -0.14197055       0.93717260
C       -0.97603443       0.39351870      -0.24275286
C       -0.06120019       1.59415856      -0.08276301
C        0.49570901       0.25225796      -0.33511394
C        1.43392307      -0.59820926       0.27505517
O        1.99434279      -1.27554161      -1.45705284
H       -1.97868228      -1.20281199       0.81221804
H       -1.16808831      -0.03632819       1.85829262
H       -2.68941944       0.39329354       1.06842612
H       -1.51491380       0.34664854      -1.18514440
H       -0.02432554       2.32409960      -0.88301778
H        0.02980189       2.00649165       0.91731679
H        1.18024490      -0.28672564      -1.52155339
H        2.37619701      -0.18018490       0.61493980
H        1.10025846      -1.47201639       0.82878943
H        1.54849017      -2.11668001      -1.60481234
16
Frame=7 idx=001869 GeodesicLength=0.40844473399463244 rxn_smarts="[C:1]([C@@:2]1([H:10])[C:3]([H:11])([H:12])[C@:4]1([C:5]([O:6][H:16])([H:14])[H:15])[H:13])([H:7])([H:8])[H:9]>>[C:1]([C@@:2]1([H:10])[C:3]([H:11])([H:12])[C:4]1=[C:5]([H:14])[H:15])([H:7])([H:8])[H:9].[O:6]([H:13])[H:16]"
C       -1.74467838      -0.15064567       0.92816968
C       -0.96655340       0.39161338      -0.24346682
C       -0.05961384       1.59678097      -0.07593003
C        0.50704130       0.25926594      -0.32428564
C        1.44722925      -0.59231902       0.28120172
O        1.96918322      -1.29366325      -1.47109316
H       -1.97026606      -1.21238480       0.79892516
H       -1.17568472      -0.04390355       1.85474362
H       -2.69136343       0.38010409       1.05130602
H       -1.49556242       0.34122658      -1.19117809
H       -0.01868253       2.32599749      -0.87656067
H        0.02438624       2.00790258       0.92516200
H        1.17325256      -0.27043783      -1.52945684
H        2.39402419      -0.17093636       0.60482400
H        1.11032809      -1.44522227       0.86475608
H        1.49695993      -2.12337831      -1.59711704
16
Frame=8 idx=001869 GeodesicLength=0.4669181679747836 rxn_smarts="[C:1]([C@@:2]1([H:10])[C:3]([H:11])([H:12])[C@:4]1([C:5]([O:6][H:16])([H:14])[H:15])[H:13])([H:7])([H:8])[H:9]>>[C:1]([C@@:2]1([H:10])[C:3]([H:11])([H:12])[C:4]1=[C:5]([H:14])[H:15])([H:7])([H:8])[H:9].[O:6]([H:13])[H:16]"
C       -1.74291524      -0.15926601       0.91920255
C       -0.95714727       0.38963625      -0.24419302
C       -0.05788858       1.59906247      -0.06934159
C        0.51813631       0.26585466      -0.31384972
C        1.46007449      -0.58696454       0.28722521
O        1.94355326      -1.31121853      -1.48484345
H       -1.96193287      -1.22179180       0.78571438
H       -1.18292328      -0.05171364       1.85099672
H       -2.69290744       0.36719726       1.03442935
H       -1.47645937       0.33599339      -1.19699051
H       -0.01290208       2.32760203      -0.87027165
H        0.01936891       2.00892236       0.93270569
H        1.16590569      -0.25427358      -1.53746834
H        2.41091415      -0.16224277       0.59514181
H        1.12057689      -1.41786814       0.90027759
H        1.44654644      -2.12892943      -1.58873504
16
Frame=9 idx=001869 GeodesicLength=0.5255189267434982 rxn_smarts="[C:1]([C@@:2]1([H:10])[C:3]([H:11])([H:12])[C@:4]1([C:5]([O:6][H:16])([H:14])[H:15])[H:13])([H:7])([H:8])[H:9]>>[C:1]([C@@:2]1([H:10])[C:3]([H:11])([H:12])[C:4]1=[C:5]([H:14])[H:15])([H:7])([H:8])[H:9].[O:6]([H:13])[H:16]"
C       -1.74101454      -0.16793031       0.91017368
C       -0.94779437       0.38764202      -0.24496274
C       -0.05600562       1.60108992      -0.06290755
C        0.52904690       0.27211052      -0.30379887
C        1.47255746      -0.58203943       0.29315403
O        1.91722306      -1.32844212      -1.49831802
H       -1.95360353      -1.23116449       0.77239930
H       -1.18984476      -0.05986369       1.84701484
H       -2.69411643       0.35439841       1.01766434
H       -1.45756831       0.33104950      -1.20266046
H       -0.00694998       2.32907517      -0.86401958
H        0.01472870       2.00957539       0.94008681
H        1.15819388      -0.23819725      -1.54559702
H        2.42708050      -0.15397219       0.58569652
H        1.13117441      -1.38971375       0.93556279
H        1.39689263      -2.13361771      -1.57948807
16
Frame=10 idx=001869 GeodesicLength=0.5842692951858319 rxn_smarts="[C:1]([C@@:2]1([H:10])[C:3]([H:11])([H:12])[C@:4]1([C:5]([O:6][H:16])([H:14])[H:15])[H:13])([H:7])([H:8])[H:9]>>[C:1]([C@@:2]1([H:10])[C:3]([H:11])([H:12])[C:4]1=[C:5]([H:14])[H:15])([H:7])([H:8])[H:9].[O:6]([H:13])[H:16]"
C       -1.73896157      -0.17670485       0.90098854
C       -0.93845734       0.38567434      -0.24578622
C       -0.05395336       1.60288542      -0.05653816
C        0.53981931       0.27809408      -0.29412534
C        1.48473880      -0.57744555       0.29899263
O        1.88997767      -1.34552438      -1.51148999
H       -1.94517577      -1.24055905       0.75880363
H       -1.19649849      -0.06842872       1.84272850
H       -2.69502402       0.34156275       1.00089495
H       -1.43881277       0.32648248      -1.20821205
H       -0.00079532       2.33047619      -0.85765621
H        0.01041363       2.00981648       0.94741606
H        1.15012042      -0.22220696      -1.55382450
H        2.44266303      -0.14603963       0.57626039
H        1.14225021      -1.36046746       0.97075011
H        1.34769558      -2.13761514      -1.56920236
16
Frame=11 idx=001869 GeodesicLength=0.6432454309060195 rxn_smarts="[C:1]([C@@:2]1([H:10])[C:3]([H:11])([H:12])[C@:4]1([C:5]([O:6][H:16])([H:14])[H:15])[H:13])([H:7])([H:8])[H:9]>>[C:1]([C@@:2]1([H:10])[C:3]([H:11])([H:12])[C:4]1=[C:5]([H:14])[H:15])([H:7])([H:8])[H:9].[O:6]([H:13])[H:16]"
C       -1.73674572      -0.18564038       0.89159818
C       -0.92911759       0.38375308      -0.24667698
C       -0.05172406       1.60448212      -0.05019383
C        0.55048886       0.28383931      -0.28482100
C        1.49665199      -0.57314579       0.30478450
O        1.86171579      -1.36260715      -1.52428669
H       -1.93658701      -1.25003708       0.74483524
H       -1.20289633      -0.07746579       1.83811164
H       -2.69565295       0.32859710       0.98405325
H       -1.42015702       0.32232306      -1.21368162
H        0.00557065       2.33186438      -0.85112549
H        0.00639616       2.00965510       0.95475230
H        1.14173180      -0.20629847      -1.56213156
H        2.45775154      -0.13841828       0.56673683
H        1.15387185      -1.32992013       1.00595071
H        1.29870203      -2.14098110      -1.55790548
16
Frame=12 idx=001869 GeodesicLength=0.7023830593455735 rxn_smarts="[C:1]([C@@:2]1([H:10])[C:3]([H:11])([H:12])[C@:4]1([C:5]([O:6][H:16])([H:14])[H:15])[H:13])([H:7])([H:8])[H:9]>>[C:1]([C@@:2]1([H:10])[C:3]([H:11])([H:12])[C:4]1=[C:5]([H:14])[H:15])([H:7])([H:8])[H:9].[O:6]([H:13])[H:16]"
C       -1.73439954      -0.19465535       0.88208949
C       -0.91983203       0.38183765      -0.24761841
C       -0.04933457       1.60583000      -0.04394039
C        0.56099720       0.28927043      -0.27590032
C        1.50819786      -0.56923164       0.31055680
O        1.83267488      -1.37950590      -1.53674742
H       -1.92800121      -1.25949276       0.73061826
H       -1.20897191      -0.08693937       1.83321313
H       -2.69596835       0.31569338       0.96729530
H       -1.40171362       0.31849912      -1.21903596
H        0.01211101       2.33314463      -0.84453448
H        0.00272050       2.00909161       0.96200787
H        1.13303482      -0.19042347      -1.57052725
H        2.47219575      -0.13118876       0.55734269
H        1.16594229      -1.29824882       1.04092839
H        1.25034691      -2.14368076      -1.54574770
16
Frame=13 idx=001869 GeodesicLength=0.7617050616612955 rxn_smarts="[C:1]([C@@:2]1([H:10])[C:3]([H:11])([H:12])[C@:4]1([C:5]([O:6][H:16])([H:14])[H:15])[H:13])([H:7])([H:8])[H:9]>>[C:1]([C@@:2]1([H:10])[C:3]([H:11])([H:12])[C:4]1=[C:5]([H:14])[H:15])([H:7])([H:8])[H:9].[O:6]([H:13])[H:16]"
C       -1.73194508      -0.20374523       0.87247720
C       -0.91061383       0.37992845      -0.24860539
C       -0.04679120       1.60693980      -0.03777799
C        0.57134914       0.29438360      -0.26736581
C        1.51936236      -0.56571512       0.31634343
O        1.80292301      -1.39624463      -1.54886464
H       -1.91945771      -1.26892372       0.71615378
H       -1.21472486      -0.09686697       1.82804151
H       -2.69599381       0.30287899       0.95066377
H       -1.38350284       0.31500579      -1.22427127
H        0.01881804       2.33432738      -0.83788805
H       -0.00062824       2.00814534       0.96918346
H        1.12407135      -0.17456584      -1.57900931
H        2.48600609      -0.12437342       0.54808457
H        1.17844574      -1.26541017       1.07563621
H        1.20268184      -2.14576424      -1.53280147
16
Frame=14 idx=001869 GeodesicLength=0.8212082391511044 rxn_smarts="[C:1]([C@@:2]1([H:10])[C:3]([H:11])([H:12])[C@:4]1([C:5]([O:6][H:16])([H:14])[H:15])[H:13])([H:7])([H:8])[H:9]>>[C:1]([C@@:2]1([H:10])[C:3]([H:11])([H:12])[C:4]1=[C:5]([H:14])[H:15])([H:7])([H:8])[H:9].[O:6]([H:13])[H:16]"
C       -1.72938317      -0.21290960       0.86275411
C       -0.90146961       0.37802423      -0.24963970
C       -0.04409852       1.60780560      -0.03170210
C        0.58154436       0.29917680      -0.25921262
C        1.53012820      -0.56259080       0.32219021
O        1.77246940      -1.41283556      -1.56061412
H       -1.91097886      -1.27831658       0.70141022
H       -1.22012664      -0.10728135       1.82258442
H       -2.69572320       0.29017120       0.93417599
H       -1.36554077       0.31184109      -1.22939264
H        0.02568270       2.33540113      -0.83118060
H       -0.00365736       2.00680882       0.97628266
H        1.11485902      -0.15870002      -1.58756041
H        2.49919075      -0.11798750       0.53896594
H        1.19139284      -1.23134239       1.11002622
H        1.15571086      -2.14726507      -1.51908760
16
Frame=15 idx=001869 GeodesicLength=0.8808488757864338 rxn_smarts="[C:1]([C@@:2]1([H:10])[C:3]([H:11])([H:12])[C@:4]1([C:5]([O:6][H:16])([H:14])[H:15])[H:13])([H:7])([H:8])[H:9]>>[C:1]([C@@:2]1([H:10])[C:3]([H:11])([H:12])[C:4]1=[C:5]([H:14])[H:15])([H:7])([H:8])[H:9].[O:6]([H:13])[H:16]"
C       -1.72675241      -0.22208264       0.85300097
C       -0.89243894       0.37608696      -0.25070474
C       -0.04127958       1.60840181      -0.02576544
C        0.59154951       0.30359865      -0.25144120
C        1.54042821      -0.55991432       0.32814522
O        1.74154474      -1.42916955      -1.57204102
H       -1.90270994      -1.28759488       0.68649339
H       -1.22513843      -0.11815017       1.81689227
H       -2.69515087       0.27773196       0.91798005
H       -1.34789826       0.30892769      -1.23437271
H        0.03266760       2.33630039      -0.82450353
H       -0.00636300       2.00511216       0.98323405
H        1.10544103      -0.14277317      -1.59618152
H        2.51166338      -0.11208277       0.53014620
H        1.20469137      -1.19620647       1.14390755
H        1.10974560      -2.14818565      -1.50478954
16
Frame=16 idx=001869 GeodesicLength=0.9405833789805851 rxn_smarts="[C:1]([C@@:2]1([H:10])[C:3]([H:11])([H:12])[C@:4]1([C:5]([O:6][H:16])([H:14])[H:15])[H:13])([H:7])([H:8])[H:9]>>[C:1]([C@@:2]1([H:10])[C:3]([H:11])([H:12])[C:4]1=[C:5]([H:14])[H:15])([H:7])([H:8])[H:9].[O:6]([H:13])[H:16]"
C       -1.72408078      -0.23121331       0.84328324
C       -0.88355012       0.37408090      -0.25178911
C       -0.03835329       1.60870779      -0.02001483
C        0.60134527       0.30761343      -0.24404512
C        1.55021614      -0.55771782       0.33427060
O        1.71034906      -1.44516692      -1.58317481
H       -1.89476615      -1.29669914       0.67149061
H       -1.22971927      -0.12944466       1.81100747
H       -2.69427383       0.26568756       0.90219521
H       -1.33063257       0.30619079      -1.23919325
H        0.03973325       2.33696899      -0.81793887
H       -0.00874409       2.00308395       0.98997309
H        1.09585467      -0.12673125      -1.60486313
H        2.52337736      -0.10669482       0.52176310
H        1.21824725      -1.16014285       1.17712626
H        1.06499709      -2.14852263      -1.49009047
