9
Frame=0 idx=006705 GeodesicLength=0.0 rxn_smarts="[O:1]=[C:2]([c:3]1[n:4][c:5]([H:9])[n:6][o:7]1)[H:8]>>[O:1]=[C:2]([C:3]([N:4]=[C:5]=[N:6][H:9])=[O:7])[H:8]"
O       -2.78184588      -0.50383431      -0.16191807
C       -1.85914290       0.24308626      -0.08539533
C       -0.40505406      -0.24821250      -0.02696662
N        0.50183615       0.80295091       0.04789072
C        1.63125757       0.17449632       0.08605019
N        2.20995117      -0.90450110       0.08437891
O       -0.09691058      -1.42064976      -0.04448853
H       -1.95681860       1.34247120      -0.04979469
H        2.75672710       0.51419294       0.15024339
9
Frame=1 idx=006705 GeodesicLength=0.05255251499645224 rxn_smarts="[O:1]=[C:2]([c:3]1[n:4][c:5]([H:9])[n:6][o:7]1)[H:8]>>[O:1]=[C:2]([C:3]([N:4]=[C:5]=[N:6][H:9])=[O:7])[H:8]"
O       -2.77889116      -0.51127551      -0.18627236
C       -1.86304229       0.24088885      -0.07603188
C       -0.40857432      -0.24169799       0.00687565
N        0.49885196       0.80731443       0.06671438
C        1.63402923       0.18775259       0.03692947
N        2.19718202      -0.90086348       0.06730261
O       -0.08913900      -1.41418852      -0.02626347
H       -1.96617934       1.34062932      -0.05979023
H        2.77576291       0.49144031       0.17053584
9
Frame=2 idx=006705 GeodesicLength=0.10469785226991599 rxn_smarts="[O:1]=[C:2]([c:3]1[n:4][c:5]([H:9])[n:6][o:7]1)[H:8]>>[O:1]=[C:2]([C:3]([N:4]=[C:5]=[N:6][H:9])=[O:7])[H:8]"
O       -2.77758193      -0.51976015      -0.15771427
C       -1.86468362       0.23912753      -0.07470010
C       -0.41004475      -0.23474158       0.01641643
N        0.49693343       0.81108332       0.07431310
C        1.63562799       0.20102238       0.00572839
N        2.18344932      -0.89602381       0.05146698
O       -0.07959721      -1.40609500      -0.03903599
H       -1.97206903       1.33818483      -0.08766352
H        2.78796579       0.46720248       0.21118898
9
Frame=3 idx=006705 GeodesicLength=0.15694175764166046 rxn_smarts="[O:1]=[C:2]([c:3]1[n:4][c:5]([H:9])[n:6][o:7]1)[H:8]>>[O:1]=[C:2]([C:3]([N:4]=[C:5]=[N:6][H:9])=[O:7])[H:8]"
O       -2.77599316      -0.52778233      -0.14188457
C       -1.86693435       0.23730236      -0.07273244
C       -0.41152200      -0.22764328       0.02375162
N        0.49516564       0.81531613       0.08044369
C        1.63729311       0.21443585      -0.01387407
N        2.17048317      -0.89111908       0.03743042
O       -0.07045430      -1.39843515      -0.04362368
H       -1.97915932       1.33546442      -0.10713329
H        2.80112119       0.44246106       0.23762231
9
Frame=4 idx=006705 GeodesicLength=0.2093667081095857 rxn_smarts="[O:1]=[C:2]([c:3]1[n:4][c:5]([H:9])[n:6][o:7]1)[H:8]>>[O:1]=[C:2]([C:3]([N:4]=[C:5]=[N:6][H:9])=[O:7])[H:8]"
O       -2.77442542      -0.53572831      -0.12095197
C       -1.86914012       0.23550727      -0.06975046
C       -0.41265600      -0.22027943       0.02759700
N        0.49345981       0.81996149       0.08316570
C        1.63921579       0.22816226      -0.02803593
N        2.15782624      -0.88584300       0.02331659
O       -0.06107928      -1.39031093      -0.05190305
H       -1.98638302       1.33209796      -0.12860503
H        2.81318200       0.41643269       0.26516716
9
Frame=5 idx=006705 GeodesicLength=0.26181262456037874 rxn_smarts="[O:1]=[C:2]([c:3]1[n:4][c:5]([H:9])[n:6][o:7]1)[H:8]>>[O:1]=[C:2]([C:3]([N:4]=[C:5]=[N:6][H:9])=[O:7])[H:8]"
O       -2.77238833      -0.54352444      -0.10493254
C       -1.87135617       0.23371368      -0.06662297
C       -0.41373344      -0.21277214       0.03075724
N        0.49186039       0.82488940       0.08277998
C        1.64130215       0.24167987      -0.03953310
N        2.14532116      -0.88049086       0.01259712
O       -0.05189522      -1.38214054      -0.05813318
H       -1.99411886       1.32850036      -0.14487192
H        2.82500831       0.39014466       0.28795937
9
Frame=6 idx=006705 GeodesicLength=0.31429006277609306 rxn_smarts="[O:1]=[C:2]([c:3]1[n:4][c:5]([H:9])[n:6][o:7]1)[H:8]>>[O:1]=[C:2]([C:3]([N:4]=[C:5]=[N:6][H:9])=[O:7])[H:8]"
O       -2.77004146      -0.55126455      -0.09193768
C       -1.87356056       0.23193709      -0.06345522
C       -0.41480146      -0.20514898       0.03373446
N        0.49025178       0.82998350       0.08126477
C        1.64345622       0.25510080      -0.04873366
N        2.13299687      -0.87498115       0.00346793
O       -0.04285495      -1.37389292      -0.06295469
H       -2.00212686       1.32473049      -0.15861810
H        2.83668041       0.36353572       0.30723220
9
Frame=7 idx=006705 GeodesicLength=0.3668039398008937 rxn_smarts="[O:1]=[C:2]([c:3]1[n:4][c:5]([H:9])[n:6][o:7]1)[H:8]>>[O:1]=[C:2]([C:3]([N:4]=[C:5]=[N:6][H:9])=[O:7])[H:8]"
O       -2.76747939      -0.55897935      -0.08147388
C       -1.87575602       0.23017064      -0.06044437
C       -0.41591074      -0.19745029       0.03690236
N        0.48858243       0.83517414       0.07958902
C        1.64561432       0.26847843      -0.05593864
N        2.12084711      -0.86925768      -0.00477486
O       -0.03396418      -1.36559489      -0.06638005
H       -2.01029089       1.32083746      -0.17078288
H        2.84835737       0.33662154       0.32330331
9
Frame=8 idx=006705 GeodesicLength=0.41936300735520676 rxn_smarts="[O:1]=[C:2]([c:3]1[n:4][c:5]([H:9])[n:6][o:7]1)[H:8]>>[O:1]=[C:2]([C:3]([N:4]=[C:5]=[N:6][H:9])=[O:7])[H:8]"
O       -2.76478047      -0.56667686      -0.07242325
C       -1.87796095       0.22842383      -0.05742826
C       -0.41708128      -0.18968711       0.04034258
N        0.48681743       0.84044173       0.07836448
C        1.64775234       0.28190823      -0.06116866
N        2.10886906      -0.86324917      -0.01270888
O       -0.02520943      -1.35719660      -0.06909745
H       -2.01851031       1.31674357      -0.18268088
H        2.86010361       0.30929238       0.33680030
9
Frame=9 idx=006705 GeodesicLength=0.4719549392973509 rxn_smarts="[O:1]=[C:2]([c:3]1[n:4][c:5]([H:9])[n:6][o:7]1)[H:8]>>[O:1]=[C:2]([C:3]([N:4]=[C:5]=[N:6][H:9])=[O:7])[H:8]"
O       -2.76197178      -0.57436721      -0.06444222
C       -1.88017670       0.22668503      -0.05453553
C       -0.41830957      -0.18186551       0.04388379
N        0.48496774       0.84579335       0.07725532
C        1.64989536       0.29536055      -0.06463592
N        2.09705181      -0.85697613      -0.02008025
O       -0.01658645      -1.34871117      -0.07135050
H       -2.02680732       1.31248819      -0.19415606
H        2.87193692       0.28159289       0.34806137
9
Frame=10 idx=006705 GeodesicLength=0.5246007842557238 rxn_smarts="[O:1]=[C:2]([c:3]1[n:4][c:5]([H:9])[n:6][o:7]1)[H:8]>>[O:1]=[C:2]([C:3]([N:4]=[C:5]=[N:6][H:9])=[O:7])[H:8]"
O       -2.75905980      -0.58204462      -0.05633525
C       -1.88240332       0.22498629      -0.05142694
C       -0.41957748      -0.17393647       0.04771232
N        0.48299545       0.85128869       0.07693065
C        1.65203307       0.30905501      -0.06610690
N        2.08542457      -0.85026406      -0.02825312
O       -0.00802660      -1.34000540      -0.07359282
H       -2.03508530       1.30782458      -0.20692915
H        2.88369941       0.25309599       0.35800121
9
Frame=11 idx=006705 GeodesicLength=0.5772940327031945 rxn_smarts="[O:1]=[C:2]([c:3]1[n:4][c:5]([H:9])[n:6][o:7]1)[H:8]>>[O:1]=[C:2]([C:3]([N:4]=[C:5]=[N:6][H:9])=[O:7])[H:8]"
O       -2.75606511      -0.58970029      -0.04795011
C       -1.88464506       0.22331995      -0.04830746
C       -0.42090183      -0.16590920       0.05181960
N        0.48089534       0.85694274       0.07737832
C        1.65417208       0.32299881      -0.06552961
N        2.07397709      -0.84307491      -0.03713622
O        0.00046059      -1.33109020      -0.07588526
H       -2.04334045       1.30273468      -0.22095889
H        2.89544736       0.22377843       0.36656964
9
Frame=12 idx=006705 GeodesicLength=0.6300614800633525 rxn_smarts="[O:1]=[C:2]([c:3]1[n:4][c:5]([H:9])[n:6][o:7]1)[H:8]>>[O:1]=[C:2]([C:3]([N:4]=[C:5]=[N:6][H:9])=[O:7])[H:8]"
O       -2.75296124      -0.59731643      -0.03856612
C       -1.88688746       0.22167883      -0.04517965
C       -0.42223686      -0.15774505       0.05579591
N        0.47869244       0.86279781       0.07780647
C        1.65638787       0.33715559      -0.06284338
N        2.06271698      -0.83537001      -0.04643536
O        0.00890809      -1.32187936      -0.07885254
H       -2.05165646       1.29714239      -0.23609384
H        2.90703664       0.19353623       0.37436852
9
Frame=13 idx=006705 GeodesicLength=0.6829047551355238 rxn_smarts="[O:1]=[C:2]([c:3]1[n:4][c:5]([H:9])[n:6][o:7]1)[H:8]>>[O:1]=[C:2]([C:3]([N:4]=[C:5]=[N:6][H:9])=[O:7])[H:8]"
O       -2.74969294      -0.60491345      -0.02792437
C       -1.88910920       0.22007302      -0.04206942
C       -0.42357007      -0.14935452       0.06006405
N        0.47634726       0.86899769       0.07887340
C        1.65865968       0.35179360      -0.05761384
N        2.05167958      -0.82683781      -0.05809217
O        0.01741114      -1.31229935      -0.08171104
H       -2.05995961       1.29079943      -0.25342223
H        2.91823416       0.16174138       0.38189562
9
Frame=14 idx=006705 GeodesicLength=0.7358131861045444 rxn_smarts="[O:1]=[C:2]([c:3]1[n:4][c:5]([H:9])[n:6][o:7]1)[H:8]>>[O:1]=[C:2]([C:3]([N:4]=[C:5]=[N:6][H:9])=[O:7])[H:8]"
O       -2.74624764      -0.61250527      -0.01659942
C       -1.89131495       0.21847793      -0.03916172
C       -0.42490264      -0.14072872       0.06441103
N        0.47388933       0.87555210       0.07978888
C        1.66101545       0.36674669      -0.04981010
N        2.04083998      -0.81747312      -0.07129612
O        0.02596305      -1.30240286      -0.08421766
H       -2.06833718       1.28380988      -0.27186953
H        2.92909460       0.12852337       0.38875465
9
Frame=15 idx=006705 GeodesicLength=0.7887807415852702 rxn_smarts="[O:1]=[C:2]([c:3]1[n:4][c:5]([H:9])[n:6][o:7]1)[H:8]>>[O:1]=[C:2]([C:3]([N:4]=[C:5]=[N:6][H:9])=[O:7])[H:8]"
O       -2.74263650      -0.62012213      -0.00581092
C       -1.89351535       0.21685394      -0.03675649
C       -0.42627763      -0.13189378       0.06882344
N        0.47132442       0.88238584       0.08018947
C        1.66339639       0.38179469      -0.03944570
N        2.03015717      -0.80730921      -0.08520025
O        0.03453843      -1.29232065      -0.08553596
H       -2.07682086       1.27642293      -0.29022014
H        2.93983394       0.09418836       0.39395656
9
Frame=16 idx=006705 GeodesicLength=0.8417851387384575 rxn_smarts="[O:1]=[C:2]([c:3]1[n:4][c:5]([H:9])[n:6][o:7]1)[H:8]>>[O:1]=[C:2]([C:3]([N:4]=[C:5]=[N:6][H:9])=[O:7])[H:8]"
O       -2.73881131      -0.62781596       0.00438995
C       -1.89568739       0.21517689      -0.03487209
C       -0.42766813      -0.12278783       0.07328924
N        0.46867210       0.88957495       0.07978657
C        1.66579434       0.39695579      -0.02612371
N        2.01963665      -0.79608373      -0.10063217
O        0.04323418      -1.28206221      -0.08505846
H       -2.08541114       1.26862366      -0.30853232
H        2.95024072       0.05841845       0.39775300
