13
Frame=0 idx=010746 GeodesicLength=0.0 rxn_smarts="[O:1]1[C@@:2]2([H:8])[C@:3]3([H:9])[C:4]([H:10])=[C:5]([H:11])[C@@:6]2([H:12])[C@:7]13[H:13]>>[O:1]1[C@@:2]2([H:8])[C@@:3]([C:4](=[C:5]([H:11])[H:12])[H:10])([H:9])[C@:7]1([H:13])[C:6]2"
O       -1.02030113      -1.82215000       0.51713810
C       -0.50077034      -0.57692803       1.09788376
C        0.71770904      -0.63166987       0.14105663
C        1.14108215       0.74409947      -0.23750172
C        0.13023498       1.56898792      -0.41795152
C       -1.31682209       0.13527074       0.01280423
C       -0.56337905      -1.03276567      -0.63456422
H       -0.52442250      -0.46269875       2.17991881
H        1.47055749      -1.40173242       0.31706887
H        2.18046262       1.03189209      -0.35398777
H        0.13698264       2.61602807      -0.69716777
H       -1.19122299       1.29770523      -0.29643260
H       -0.66011087      -1.46603878      -1.62826474
13
Frame=1 idx=010746 GeodesicLength=0.059818347001538076 rxn_smarts="[O:1]1[C@@:2]2([H:8])[C@:3]3([H:9])[C:4]([H:10])=[C:5]([H:11])[C@@:6]2([H:12])[C@:7]13[H:13]>>[O:1]1[C@@:2]2([H:8])[C@@:3]([C:4](=[C:5]([H:11])[H:12])[H:10])([H:9])[C@:7]1([H:13])[C:6]2"
O       -1.02851749      -1.81901264       0.51208317
C       -0.50154988      -0.57944230       1.09724019
C        0.71910389      -0.63109029       0.14458909
C        1.14094303       0.74685305      -0.23183185
C        0.12848662       1.57209282      -0.40781701
C       -1.31520046       0.12759673       0.00727087
C       -0.55564081      -1.03689941      -0.63763798
H       -0.53238934      -0.46520553       2.17901374
H        1.47337343      -1.39885225       0.32388594
H        2.17892260       1.02639642      -0.37612453
H        0.14339727       2.61276132      -0.70968654
H       -1.20186735       1.31665294      -0.27015269
H       -0.64906151      -1.47185085      -1.63083241
13
Frame=2 idx=010746 GeodesicLength=0.11963374012944296 rxn_smarts="[O:1]1[C@@:2]2([H:8])[C@:3]3([H:9])[C:4]([H:10])=[C:5]([H:11])[C@@:6]2([H:12])[C@:7]13[H:13]>>[O:1]1[C@@:2]2([H:8])[C@@:3]([C:4](=[C:5]([H:11])[H:12])[H:10])([H:9])[C@:7]1([H:13])[C:6]2"
O       -1.03678520      -1.81564219       0.50689891
C       -0.50237790      -0.58177807       1.09642779
C        0.72051920      -0.63050628       0.14804833
C        1.14095333       0.74954364      -0.22644153
C        0.12687737       1.57514110      -0.39802052
C       -1.31332110       0.12022783       0.00140322
C       -0.54784843      -1.04107184      -0.64072117
H       -0.54042705      -0.46742074       2.17788075
H        1.47615679      -1.39595834       0.33078320
H        2.17682494       1.02084018      -0.39801732
H        0.14931244       2.60904366      -0.72194436
H       -1.21195560       1.33539899      -0.24294972
H       -0.63792880      -1.47781795      -1.63334758
13
Frame=3 idx=010746 GeodesicLength=0.17944857610313592 rxn_smarts="[O:1]1[C@@:2]2([H:8])[C@:3]3([H:9])[C:4]([H:10])=[C:5]([H:11])[C@@:6]2([H:12])[C@:7]13[H:13]>>[O:1]1[C@@:2]2([H:8])[C@@:3]([C:4](=[C:5]([H:11])[H:12])[H:10])([H:9])[C@:7]1([H:13])[C:6]2"
O       -1.04509478      -1.81202101       0.50171335
C       -0.50323825      -0.58384487       1.09541699
C        0.72194659      -0.62993513       0.15137853
C        1.14108742       0.75210653      -0.22157988
C        0.12537919       1.57806241      -0.38879948
C       -1.31120502       0.11311310      -0.00488219
C       -0.54002933      -1.04540363      -0.64378492
H       -0.54849041      -0.46912120       2.17647678
H        1.47890662      -1.39304142       0.33777621
H        2.17420365       1.01521884      -0.41970662
H        0.15479860       2.60523566      -0.73300709
H       -1.22149988       1.35381930      -0.21527985
H       -0.62676440      -1.48418859      -1.63572182
13
Frame=4 idx=010746 GeodesicLength=0.2392653220027028 rxn_smarts="[O:1]1[C@@:2]2([H:8])[C@:3]3([H:9])[C:4]([H:10])=[C:5]([H:11])[C@@:6]2([H:12])[C@:7]13[H:13]>>[O:1]1[C@@:2]2([H:8])[C@@:3]([C:4](=[C:5]([H:11])[H:12])[H:10])([H:9])[C@:7]1([H:13])[C:6]2"
O       -1.05343605      -1.80815973       0.49657737
C       -0.50411589      -0.58562891       1.09420917
C        0.72337823      -0.62938841       0.15455153
C        1.14131986       0.75451596      -0.21734392
C        0.12396676       1.58083752      -0.38018701
C       -1.30887375       0.10621468      -0.01157792
C       -0.53220956      -1.04994318      -0.64680919
H       -0.55653864      -0.47025331       2.17479986
H        1.48162259      -1.39010104       0.34484257
H        2.17110313       1.00955556      -0.44114670
H        0.15992424       2.60153939      -0.74260555
H       -1.23052382       1.37186304      -0.18739669
H       -0.61561709      -1.49105155      -1.63791354
13
Frame=5 idx=010746 GeodesicLength=0.2990856012724116 rxn_smarts="[O:1]1[C@@:2]2([H:8])[C@:3]3([H:9])[C:4]([H:10])=[C:5]([H:11])[C@@:6]2([H:12])[C@:7]13[H:13]>>[O:1]1[C@@:2]2([H:8])[C@@:3]([C:4](=[C:5]([H:11])[H:12])[H:10])([H:9])[C@:7]1([H:13])[C:6]2"
O       -1.06179515      -1.80407789       0.49152998
C       -0.50500190      -0.58712672       1.09280894
C        0.72480665      -0.62887465       0.15754937
C        1.14162220       0.75675502      -0.21379902
C        0.12260999       1.58344860      -0.37220470
C       -1.30635151       0.09948817      -0.01867293
C       -0.52440857      -1.05473395      -0.64977611
H       -0.56454431      -0.47078414       2.17285286
H        1.48430720      -1.38713139       0.35196724
H        2.16756499       1.00386364      -0.46232750
H        0.16477578       2.59814648      -0.75053300
H       -1.23906419       1.38950713      -0.15950643
H       -0.60452119      -1.49848031      -1.63988869
13
Frame=6 idx=010746 GeodesicLength=0.3589231079380406 rxn_smarts="[O:1]1[C@@:2]2([H:8])[C@:3]3([H:9])[C:4]([H:10])=[C:5]([H:11])[C@@:6]2([H:12])[C@:7]13[H:13]>>[O:1]1[C@@:2]2([H:8])[C@@:3]([C:4](=[C:5]([H:11])[H:12])[H:10])([H:9])[C@:7]1([H:13])[C:6]2"
O       -1.07016366      -1.79980288       0.48656362
C       -0.50589353      -0.58836627       1.09123548
C        0.72623042      -0.62839698       0.16037326
C        1.14197697       0.75883011      -0.21092153
C        0.12128817       1.58590932      -0.36477640
C       -1.30366452       0.09290561      -0.02612123
C       -0.51664038      -1.05977810      -0.65268009
H       -0.57249586      -0.47075674       2.17066141
H        1.48697065      -1.38413237       0.35912533
H        2.16363944       0.99816546      -0.48322176
H        0.16941191       2.59511001      -0.75691254
H       -1.24716136       1.40677804      -0.13167606
H       -0.59349825      -1.50646522      -1.64164947
13
Frame=7 idx=010746 GeodesicLength=0.4187303586074796 rxn_smarts="[O:1]1[C@@:2]2([H:8])[C@:3]3([H:9])[C:4]([H:10])=[C:5]([H:11])[C@@:6]2([H:12])[C@:7]13[H:13]>>[O:1]1[C@@:2]2([H:8])[C@@:3]([C:4](=[C:5]([H:11])[H:12])[H:10])([H:9])[C@:7]1([H:13])[C:6]2"
O       -1.07852097      -1.79535476       0.48168784
C       -0.50678312      -0.58937351       1.08948738
C        0.72763049      -0.62795740       0.16301915
C        1.14235086       0.76073888      -0.20871514
C        0.11998815       1.58821490      -0.35788159
C       -1.30080822       0.08643214      -0.03389375
C       -0.50891089      -1.06507736      -0.65549766
H       -0.58037782      -0.47021084       2.16821017
H        1.48958396      -1.38109640       0.36629802
H        2.15932886       0.99249087      -0.50379869
H        0.17388548       2.59249135      -0.76178353
H       -1.25480682       1.42369661      -0.10397744
H       -0.58255997      -1.51499448      -1.64315476
13
Frame=8 idx=010746 GeodesicLength=0.4785698300662533 rxn_smarts="[O:1]1[C@@:2]2([H:8])[C@:3]3([H:9])[C:4]([H:10])=[C:5]([H:11])[C@@:6]2([H:12])[C@:7]13[H:13]>>[O:1]1[C@@:2]2([H:8])[C@@:3]([C:4](=[C:5]([H:11])[H:12])[H:10])([H:9])[C@:7]1([H:13])[C:6]2"
O       -1.08687460      -1.79076465       0.47680093
C       -0.50770205      -0.59021420       1.08761380
C        0.72902606      -0.62753905       0.16554785
C        1.14275936       0.76253742      -0.20697772
C        0.11870369       1.59043206      -0.35127816
C       -1.29782229       0.08007708      -0.04191494
C       -0.50120283      -1.07056267      -0.65825871
H       -0.58825732      -0.46930300       2.16557947
H        1.49219241      -1.37801481       0.37350504
H        2.15467592       0.98680119      -0.52417769
H        0.17819909       2.59011494      -0.76573798
H       -1.26204695       1.44036267      -0.07620545
H       -0.57165050      -1.52392697      -1.64449643
13
Frame=9 idx=010746 GeodesicLength=0.5384261107854444 rxn_smarts="[O:1]1[C@@:2]2([H:8])[C@:3]3([H:9])[C:4]([H:10])=[C:5]([H:11])[C@@:6]2([H:12])[C@:7]13[H:13]>>[O:1]1[C@@:2]2([H:8])[C@@:3]([C:4](=[C:5]([H:11])[H:12])[H:10])([H:9])[C@:7]1([H:13])[C:6]2"
O       -1.09520716      -1.78604364       0.47185258
C       -0.50866875      -0.59091993       1.08560255
C        0.73040142      -0.62712781       0.16800885
C        1.14319774       0.76425051      -0.20560772
C        0.11746318       1.59258770      -0.34487094
C       -1.29466757       0.07383429      -0.05017668
C       -0.49347626      -1.07619920      -0.66094526
H       -0.59619817      -0.46810811       2.16273249
H        1.49475301      -1.37486756       0.38080598
H        2.14959712       0.98103490      -0.54456812
H        0.18232866       2.58791581      -0.76891023
H       -1.26884153       1.45683603      -0.04827931
H       -0.56068169      -1.53319299      -1.64564420
13
Frame=10 idx=010746 GeodesicLength=0.5983056315461642 rxn_smarts="[O:1]1[C@@:2]2([H:8])[C@:3]3([H:9])[C:4]([H:10])=[C:5]([H:11])[C@@:6]2([H:12])[C@:7]13[H:13]>>[O:1]1[C@@:2]2([H:8])[C@@:3]([C:4](=[C:5]([H:11])[H:12])[H:10])([H:9])[C@:7]1([H:13])[C:6]2"
O       -1.10351616      -1.78121038       0.46685876
C       -0.50968343      -0.59149169       1.08346670
C        0.73176300      -0.62672891       0.17038293
C        1.14365129       0.76587133      -0.20464325
C        0.11622853       1.59466427      -0.33869758
C       -1.29138720       0.06767157      -0.05867416
C       -0.48575082      -1.08201386      -0.66356665
H       -0.60418453      -0.46661355       2.15969870
H        1.49729726      -1.37165088       0.38817486
H        2.14414851       0.97522946      -0.56488470
H        0.18634441       2.58596119      -0.77129067
H       -1.27522461       1.47314795      -0.02020969
H       -0.54968624      -1.54283649      -1.64661525
13
Frame=11 idx=010746 GeodesicLength=0.6582028289410474 rxn_smarts="[O:1]1[C@@:2]2([H:8])[C@:3]3([H:9])[C:4]([H:10])=[C:5]([H:11])[C@@:6]2([H:12])[C@:7]13[H:13]>>[O:1]1[C@@:2]2([H:8])[C@@:3]([C:4](=[C:5]([H:11])[H:12])[H:10])([H:9])[C@:7]1([H:13])[C:6]2"
O       -1.11179144      -1.77627820       0.46180836
C       -0.51074774      -0.59194100       1.08120256
C        0.73310480      -0.62634141       0.17267067
C        1.14410669       0.76740440      -0.20407022
C        0.11499140       1.59665996      -0.33275798
C       -1.28798452       0.06157125      -0.06740005
C       -0.47802577      -1.08800668      -0.66611979
H       -0.61221821      -0.46484166       2.15647052
H        1.49981781      -1.36835931       0.39560507
H        2.13833774       0.96939901      -0.58509925
H        0.19025633       2.58423953      -0.77295728
H       -1.28118468       1.48934614       0.00804890
H       -0.53866242      -1.55285203      -1.64740151
13
Frame=12 idx=010746 GeodesicLength=0.7181251580793007 rxn_smarts="[O:1]1[C@@:2]2([H:8])[C@:3]3([H:9])[C:4]([H:10])=[C:5]([H:11])[C@@:6]2([H:12])[C@:7]13[H:13]>>[O:1]1[C@@:2]2([H:8])[C@@:3]([C:4](=[C:5]([H:11])[H:12])[H:10])([H:9])[C@:7]1([H:13])[C:6]2"
O       -1.12002881      -1.77126157       0.45668173
C       -0.51187076      -0.59228165       1.07881173
C        0.73442510      -0.62596102       0.17488003
C        1.14455835       0.76886100      -0.20385788
C        0.11374531       1.59857945      -0.32703549
C       -1.28446779       0.05551908      -0.07634717
C       -0.47029674      -1.09417294      -0.66860776
H       -0.62031586      -0.46282347       2.15305119
H        1.50231464      -1.36498407       0.40309927
H        2.13217521       0.96354876      -0.60521248
H        0.19406849       2.58271886      -0.77402662
H       -1.28670988       1.50548136       0.03657369
H       -0.52759727      -1.56322381      -1.64801023
13
Frame=13 idx=010746 GeodesicLength=0.778062407186437 rxn_smarts="[O:1]1[C@@:2]2([H:8])[C@:3]3([H:9])[C:4]([H:10])=[C:5]([H:11])[C@@:6]2([H:12])[C@:7]13[H:13]>>[O:1]1[C@@:2]2([H:8])[C@@:3]([C:4](=[C:5]([H:11])[H:12])[H:10])([H:9])[C@:7]1([H:13])[C:6]2"
O       -1.12821782      -1.76617530       0.45146043
C       -0.51305958      -0.59252827       1.07629110
C        0.73571691      -0.62558540       0.17701998
C        1.14498928       0.77024672      -0.20398188
C        0.11247721       1.60042279      -0.32152061
C       -1.28083870       0.04949945      -0.08551494
C       -0.46255546      -1.10050697      -0.67102669
H       -0.62849184      -0.46059225       2.14943363
H        1.50478013      -1.36151819       0.41066393
H        2.12564569       0.95768194      -0.62522520
H        0.19778451       2.58138373      -0.77459915
H       -1.29175807       1.52160608       0.06543358
H       -0.51647226      -1.57393432      -1.64843418
13
Frame=14 idx=010746 GeodesicLength=0.8380126976445306 rxn_smarts="[O:1]1[C@@:2]2([H:8])[C@:3]3([H:9])[C:4]([H:10])=[C:5]([H:11])[C@@:6]2([H:12])[C@:7]13[H:13]>>[O:1]1[C@@:2]2([H:8])[C@@:3]([C:4](=[C:5]([H:11])[H:12])[H:10])([H:9])[C@:7]1([H:13])[C:6]2"
O       -1.13635441      -1.76101367       0.44611257
C       -0.51433256      -0.59268133       1.07363144
C        0.73698196      -0.62520415       0.17911079
C        1.14540448       0.77157433      -0.20440523
C        0.11118658       1.60219875      -0.31618349
C       -1.27709648       0.04351461      -0.09491602
C       -0.45478324      -1.10699778      -0.67338553
H       -0.63679006      -0.45816318       2.14560521
H        1.50721442      -1.35794476       0.41833849
H        2.11873363       0.95175919      -0.64523277
H        0.20138643       2.58017103      -0.77473971
H       -1.29631742       1.53775970       0.09474637
H       -0.50523334      -1.58497274      -1.64868213
13
Frame=15 idx=010746 GeodesicLength=0.8979953330437246 rxn_smarts="[O:1]1[C@@:2]2([H:8])[C@:3]3([H:9])[C:4]([H:10])=[C:5]([H:11])[C@@:6]2([H:12])[C@:7]13[H:13]>>[O:1]1[C@@:2]2([H:8])[C@@:3]([C:4](=[C:5]([H:11])[H:12])[H:10])([H:9])[C@:7]1([H:13])[C:6]2"
O       -1.14443570      -1.75580969       0.44064602
C       -0.51569347      -0.59274830       1.07083323
C        0.73821364      -0.62481877       0.18113974
C        1.14578458       0.77284446      -0.20514609
C        0.10985038       1.60389124      -0.31107482
C       -1.27325933       0.03752401      -0.10455381
C       -0.44699037      -1.11367049      -0.67568030
H       -0.64520303      -0.45553916       2.14157044
H        1.50961675      -1.35425436       0.42610053
H        2.11146738       0.94582689      -0.66515443
H        0.20490568       2.57913382      -0.77446807
H       -1.30034849       1.55398596       0.12453529
H       -0.49390802      -1.59636559      -1.64874774
13
Frame=16 idx=010746 GeodesicLength=0.9579924784699732 rxn_smarts="[O:1]1[C@@:2]2([H:8])[C@:3]3([H:9])[C:4]([H:10])=[C:5]([H:11])[C@@:6]2([H:12])[C@:7]13[H:13]>>[O:1]1[C@@:2]2([H:8])[C@@:3]([C:4](=[C:5]([H:11])[H:12])[H:10])([H:9])[C@:7]1([H:13])[C:6]2"
O       -1.15244956      -1.75057289       0.43505873
C       -0.51714305      -0.59273186       1.06789003
C        0.73940602      -0.62442941       0.18309768
C        1.14611113       0.77406083      -0.20620212
C        0.10844520       1.60549191      -0.30623077
C       -1.26933817       0.03151311      -0.11442742
C       -0.43918053      -1.12052957      -0.67791107
H       -0.65372115      -0.45273208       2.13732209
H        1.51198278      -1.35044524       0.43393310
H        2.10388282       0.93991203      -0.68490065
H        0.20832968       2.57824063      -0.77385854
H       -1.30381307       1.57032704       0.15486047
H       -0.48251210      -1.60810449      -1.64863152
