18
Frame=0 idx=004797 GeodesicLength=0.0 rxn_smarts="[C:1]([C:2]([C:3]([C@@:4]([C:5]([H:15])([H:16])[H:17])([O:6][H:18])[H:14])([H:12])[H:13])([H:10])[H:11])([H:7])([H:8])[H:9]>>[C:1]([C:2]([C:3]([C:4][O:6][H:18])([H:12])[H:13])([H:10])[H:11])([H:7])([H:8])[H:9].[C:5]([H:14])([H:15])([H:16])[H:17]"
C        2.70900002      -0.24879369      -0.06054363
C        1.46903328       0.63496856      -0.03751159
C        0.17490788      -0.18189869      -0.06870592
C       -1.01028936       0.73522211      -0.04328825
C       -2.51820485      -0.78263853      -0.30157463
O       -1.27142719       1.14451213       1.22232688
H        2.73257559      -0.91698812       0.80373303
H        2.73366498      -0.86937537      -0.95992572
H        3.62265691       0.34799738      -0.04414298
H        1.47795149       1.31790354      -0.89146806
H        1.47406421       1.25793675       0.86091948
H        0.14521663      -0.78053839      -0.98216595
H        0.17258081      -0.87492071       0.78524308
H       -1.96947792       0.39690168      -0.70753706
H       -3.54349796      -0.42360069      -0.20828323
H       -2.18571580      -1.25449083       0.61619532
H       -2.38851400      -1.42970355      -1.16742414
H       -1.82452472       1.92750635       1.18415343
18
Frame=1 idx=004797 GeodesicLength=0.07350188679914355 rxn_smarts="[C:1]([C:2]([C:3]([C@@:4]([C:5]([H:15])([H:16])[H:17])([O:6][H:18])[H:14])([H:12])[H:13])([H:10])[H:11])([H:7])([H:8])[H:9]>>[C:1]([C:2]([C:3]([C:4][O:6][H:18])([H:12])[H:13])([H:10])[H:11])([H:7])([H:8])[H:9].[C:5]([H:14])([H:15])([H:16])[H:17]"
C        2.71604475      -0.24304371      -0.06837871
C        1.47162060       0.63443396      -0.04285110
C        0.18166055      -0.18876528      -0.03363081
C       -1.00738587       0.72268701      -0.01426936
C       -2.52813361      -0.77319101      -0.32611407
O       -1.26917916       1.14064770       1.24811849
H        2.75854355      -0.89170534       0.80994100
H        2.72787880      -0.88339059      -0.95412124
H        3.62646840       0.35870117      -0.08242198
H        1.46160947       1.29772230      -0.91224337
H        1.48924730       1.27736313       0.84121598
H        0.14581308      -0.81428211      -0.92893816
H        0.19130571      -0.86300371       0.83480377
H       -1.96040219       0.40554240      -0.72577683
H       -3.55144528      -0.40886717      -0.23018466
H       -2.21404277      -1.27856085       0.58087577
H       -2.40646624      -1.40802165      -1.20242227
H       -1.83313712       1.91573374       1.20639756
18
Frame=2 idx=004797 GeodesicLength=0.1467649378724256 rxn_smarts="[C:1]([C:2]([C:3]([C@@:4]([C:5]([H:15])([H:16])[H:17])([O:6][H:18])[H:14])([H:12])[H:13])([H:10])[H:11])([H:7])([H:8])[H:9]>>[C:1]([C:2]([C:3]([C:4][O:6][H:18])([H:12])[H:13])([H:10])[H:11])([H:7])([H:8])[H:9].[C:5]([H:14])([H:15])([H:16])[H:17]"
C        2.72220527      -0.23762392      -0.07687729
C        1.47325670       0.63338621      -0.04855637
C        0.18840347      -0.19545509       0.00298182
C       -1.00498210       0.70966366       0.01611345
C       -2.53656894      -0.76325034      -0.35139529
O       -1.26693484       1.13707212       1.27507726
H        2.78456636      -0.86547030       0.81527387
H        2.72102342      -0.89834665      -0.94766713
H        3.62866437       0.36848631      -0.12265042
H        1.44340301       1.27569249      -0.93321279
H        1.50357450       1.29690523       0.81978522
H        0.14622723      -0.84827331      -0.87261389
H        0.21107155      -0.84953343       0.88610492
H       -1.94949736       0.41468785      -0.74352654
H       -3.55814728      -0.39421023      -0.25365488
H       -2.24187119      -1.30207299       0.54343699
H       -2.42154139      -1.38482683      -1.23835011
H       -1.84285277       1.90316920       1.22973118
18
Frame=3 idx=004797 GeodesicLength=0.2197965940430695 rxn_smarts="[C:1]([C:2]([C:3]([C@@:4]([C:5]([H:15])([H:16])[H:17])([O:6][H:18])[H:14])([H:12])[H:13])([H:10])[H:11])([H:7])([H:8])[H:9]>>[C:1]([C:2]([C:3]([C:4][O:6][H:18])([H:12])[H:13])([H:10])[H:11])([H:7])([H:8])[H:9].[C:5]([H:14])([H:15])([H:16])[H:17]"
C        2.72734563      -0.23261656      -0.08611032
C        1.47383506       0.63177406      -0.05461972
C        0.19512489      -0.20186491       0.04117647
C       -1.00313301       0.69617539       0.04792199
C       -2.54330494      -0.75283277      -0.37743428
O       -1.26470796       1.13389364       1.30322496
H        2.81053289      -0.83834493       0.81953099
H        2.71297768      -0.91425712      -0.94056772
H        3.62905039       0.37715511      -0.16489315
H        1.42320217       1.25172912      -0.95424392
H        1.51691401       1.31645137       0.79655833
H        0.14644921      -0.88233900      -0.81304874
H        0.23193121      -0.83429724       0.93911554
H       -1.93669538       0.42439845      -0.76064535
H       -3.56346395      -0.37974848      -0.27886786
H       -2.26901936      -1.32491186       0.50383908
H       -2.43330233      -1.36015589      -1.27515886
H       -1.85373620       1.88979160       1.25422256
18
Frame=4 idx=004797 GeodesicLength=0.29261973983076295 rxn_smarts="[C:1]([C:2]([C:3]([C@@:4]([C:5]([H:15])([H:16])[H:17])([O:6][H:18])[H:14])([H:12])[H:13])([H:10])[H:11])([H:7])([H:8])[H:9]>>[C:1]([C:2]([C:3]([C:4][O:6][H:18])([H:12])[H:13])([H:10])[H:11])([H:7])([H:8])[H:9].[C:5]([H:14])([H:15])([H:16])[H:17]"
C        2.73131588      -0.22811463      -0.09614690
C        1.47324299       0.62954759      -0.06102287
C        0.20181210      -0.20787621       0.08097641
C       -1.00190051       0.68224908       0.08120000
C       -2.54812152      -0.74196785      -0.40423252
O       -1.26251460       1.13124405       1.33255712
H        2.83630278      -0.81044013       0.82248693
H        2.70361465      -0.93111631      -0.93284709
H        3.62741914       0.38449601      -0.20916673
H        1.40087934       1.22577421      -0.97517258
H        1.52912290       1.33587185       0.77148832
H        0.14647679      -0.91628135      -0.75012225
H        0.25392642      -0.81706695       0.99376694
H       -1.92195178       0.43474151      -0.77698534
H       -3.56723995      -0.36561653      -0.30595867
H       -2.29523917      -1.34699042       0.46203921
H       -2.44131399      -1.33405850      -1.31278625
H       -1.86583148       1.87560457       1.27992626
18
Frame=5 idx=004797 GeodesicLength=0.36525610471706693 rxn_smarts="[C:1]([C:2]([C:3]([C@@:4]([C:5]([H:15])([H:16])[H:17])([O:6][H:18])[H:14])([H:12])[H:13])([H:10])[H:11])([H:7])([H:8])[H:9]>>[C:1]([C:2]([C:3]([C:4][O:6][H:18])([H:12])[H:13])([H:10])[H:11])([H:7])([H:8])[H:9].[C:5]([H:14])([H:15])([H:16])[H:17]"
C        2.73394488      -0.22420939      -0.10703570
C        1.47134623       0.62665782      -0.06774078
C        0.20843846      -0.21336763       0.12237494
C       -1.00136950       0.66789598       0.11598893
C       -2.55078817      -0.73071775      -0.43178884
O       -1.26038744       1.12922896       1.36306431
H        2.86170356      -0.78187299       0.82393357
H        2.69280185      -0.94891071      -0.92451435
H        3.62353766       0.39030677      -0.25545034
H        1.37629726       1.19778008      -0.99582065
H        1.54002052       1.35502832       0.74454073
H        0.14630528      -0.94986688      -0.68376314
H        0.27707395      -0.79762897       1.04992913
H       -1.90527180       0.44579439      -0.79236524
H       -3.56930958      -0.35199997      -0.33502603
H       -2.32021723      -1.36828877       0.41796104
H       -2.44514752      -1.30658040      -1.35118702
H       -1.87897839       1.86075115       1.30689946
18
Frame=6 idx=004797 GeodesicLength=0.43776576274199847 rxn_smarts="[C:1]([C:2]([C:3]([C@@:4]([C:5]([H:15])([H:16])[H:17])([O:6][H:18])[H:14])([H:12])[H:13])([H:10])[H:11])([H:7])([H:8])[H:9]>>[C:1]([C:2]([C:3]([C:4][O:6][H:18])([H:12])[H:13])([H:10])[H:11])([H:7])([H:8])[H:9].[C:5]([H:14])([H:15])([H:16])[H:17]"
C        2.73505769      -0.22102406      -0.11882638
C        1.46803082       0.62306040      -0.07475086
C        0.21498759      -0.21818099       0.16534676
C       -1.00160784       0.65316669       0.15231020
C       -2.55104818      -0.71912699      -0.46007891
O       -1.25832756       1.12801297       1.39470597
H        2.88654882      -0.75279190       0.82366571
H        2.68038091      -0.96766548      -0.91557345
H        3.61718476       0.39432901      -0.30373345
H        1.34935491       1.16771704      -1.01600538
H        1.54945589       1.37377772       0.71568184
H        0.14593708      -0.98281872      -0.61391848
H        0.30138275      -0.77572778       1.10743864
H       -1.88667934       0.45766955      -0.80660074
H       -3.56947463      -0.33907408      -0.36612752
H       -2.34355204      -1.38878072       0.37153260
H       -2.44436631      -1.27773973      -1.39028529
H       -1.89326531       1.84519708       1.33521874
18
Frame=7 idx=004797 GeodesicLength=0.5102246949574593 rxn_smarts="[C:1]([C:2]([C:3]([C@@:4]([C:5]([H:15])([H:16])[H:17])([O:6][H:18])[H:14])([H:12])[H:13])([H:10])[H:11])([H:7])([H:8])[H:9]>>[C:1]([C:2]([C:3]([C:4][O:6][H:18])([H:12])[H:13])([H:10])[H:11])([H:7])([H:8])[H:9].[C:5]([H:14])([H:15])([H:16])[H:17]"
C        2.73446578      -0.21868115      -0.13154284
C        1.46317237       0.61871518      -0.08202004
C        0.22143192      -0.22215550       0.20982007
C       -1.00269695       0.63809953       0.19016305
C       -2.54864469      -0.70726844      -0.48906043
O       -1.25634256       1.12774852       1.42741082
H        2.91061742      -0.72337197       0.82149297
H        2.66619559      -0.98738651      -0.90601846
H        3.60812804       0.39631287      -0.35394021
H        1.31995995       1.13558588      -1.03552232
H        1.55725374       1.39196403       0.68490346
H        0.14538014      -1.01482862      -0.54060899
H        0.32682699      -0.75113338       1.16605381
H       -1.86626809       0.47049337      -0.81948873
H       -3.56753213      -0.32706737      -0.39924829
H       -2.36475709      -1.40850478       0.32265430
H       -2.43857265      -1.24753902      -1.42999660
H       -1.90861777       1.82901737       1.36494843
18
Frame=8 idx=004797 GeodesicLength=0.5827493921241048 rxn_smarts="[C:1]([C:2]([C:3]([C@@:4]([C:5]([H:15])([H:16])[H:17])([O:6][H:18])[H:14])([H:12])[H:13])([H:10])[H:11])([H:7])([H:8])[H:9]>>[C:1]([C:2]([C:3]([C:4][O:6][H:18])([H:12])[H:13])([H:10])[H:11])([H:7])([H:8])[H:9].[C:5]([H:14])([H:15])([H:16])[H:17]"
C        2.73199123      -0.21731145      -0.14517987
C        1.45666102       0.61358541      -0.08952249
C        0.22774592      -0.22512091       0.25566773
C       -1.00471091       0.62274329       0.22951488
C       -2.54333040      -0.69521212      -0.51866040
O       -1.25441527       1.12860438       1.46106829
H        2.93367382      -0.69380049       0.81726519
H        2.65011202      -1.00808967      -0.89581704
H        3.59615697       0.39600207      -0.40594055
H        1.28806008       1.10140241      -1.05417941
H        1.56324247       1.40943082       0.65219695
H        0.14465537      -1.04555714      -0.46393883
H        0.35335486      -0.72363659       1.22545268
H       -1.84419673       0.48441937      -0.83082503
H       -3.56328018      -0.31621735      -0.43428836
H       -2.38326897      -1.42752095       0.27122484
H       -2.42743765      -1.21594311      -1.47020808
H       -1.92501367       1.81222204       1.39616951
18
Frame=9 idx=004797 GeodesicLength=0.6554180192977436 rxn_smarts="[C:1]([C:2]([C:3]([C@@:4]([C:5]([H:15])([H:16])[H:17])([O:6][H:18])[H:14])([H:12])[H:13])([H:10])[H:11])([H:7])([H:8])[H:9]>>[C:1]([C:2]([C:3]([C:4][O:6][H:18])([H:12])[H:13])([H:10])[H:11])([H:7])([H:8])[H:9].[C:5]([H:14])([H:15])([H:16])[H:17]"
C        2.72742415      -0.21699280      -0.15967600
C        1.44832027       0.60764150      -0.09717682
C        0.23384024      -0.22697756       0.30268895
C       -1.00780896       0.60705056       0.27034983
C       -2.53488647      -0.68315703      -0.54880516
O       -1.25262491       1.13056416       1.49559880
H        2.95542641      -0.66427647       0.81088118
H        2.63203723      -1.02969073      -0.88495979
H        3.58100914       0.39325695      -0.45948438
H        1.25356984       1.06526012      -1.07172069
H        1.56712190       1.42597549       0.61769409
H        0.14376377      -1.07463927      -0.38420729
H        0.38081190      -0.69321787       1.28517868
H       -1.82078564       0.49956506      -0.84032175
H       -3.55655105      -0.30695280      -0.47107383
H       -2.39844452      -1.44608882       0.21705154
H       -2.41067995      -1.18294134      -1.51084459
H       -1.94154335       1.79562083       1.42882721
18
Frame=10 idx=004797 GeodesicLength=0.7284549294846544 rxn_smarts="[C:1]([C:2]([C:3]([C@@:4]([C:5]([H:15])([H:16])[H:17])([O:6][H:18])[H:14])([H:12])[H:13])([H:10])[H:11])([H:7])([H:8])[H:9]>>[C:1]([C:2]([C:3]([C:4][O:6][H:18])([H:12])[H:13])([H:10])[H:11])([H:7])([H:8])[H:9].[C:5]([H:14])([H:15])([H:16])[H:17]"
C        2.72064065      -0.21788054      -0.17498118
C        1.43812048       0.60086587      -0.10496090
C        0.23971244      -0.22753412       0.35065201
C       -1.01200253       0.59111599       0.31253084
C       -2.52311103      -0.67112608      -0.57933224
O       -1.25087476       1.13388340       1.53075168
H        2.97563795      -0.63505561       0.80225027
H        2.61187469      -1.05222203      -0.87339307
H        3.56257697       0.38779159      -0.51434631
H        1.21657022       1.02725270      -1.08796597
H        1.56881113       1.44144128       0.58142113
H        0.14277478      -1.10172142      -0.30167663
H        0.40909279      -0.65970242       1.34479457
H       -1.79632165       0.51613490      -0.84783573
H       -3.54716652      -0.29949606      -0.50929336
H       -2.40955497      -1.46423692       0.16007756
H       -2.38818142      -1.14839215      -1.55167429
H       -1.95859921       1.77888160       1.46298162
18
Frame=11 idx=004797 GeodesicLength=0.8020462411897338 rxn_smarts="[C:1]([C:2]([C:3]([C@@:4]([C:5]([H:15])([H:16])[H:17])([O:6][H:18])[H:14])([H:12])[H:13])([H:10])[H:11])([H:7])([H:8])[H:9]>>[C:1]([C:2]([C:3]([C:4][O:6][H:18])([H:12])[H:13])([H:10])[H:11])([H:7])([H:8])[H:9].[C:5]([H:14])([H:15])([H:16])[H:17]"
C        2.71151522      -0.22008306      -0.19099518
C        1.42600609       0.59324752      -0.11282738
C        0.24531666      -0.22665906       0.39926520
C       -1.01734128       0.57497139       0.35591961
C       -2.50784532      -0.65920791      -0.61007088
O       -1.24912467       1.13868934       1.56626717
H        2.99404423      -0.60638462       0.79134175
H        2.58957541      -1.07564339      -0.86106428
H        3.54074686       0.37941922      -0.57020886
H        1.17714613       0.98751627      -1.10272389
H        1.56816728       1.45565266       0.54348287
H        0.14174364      -1.12645832      -0.21675237
H        0.43801013      -0.62306405       1.40377383
H       -1.77120760       0.53429998      -0.85319061
H       -3.53498692      -0.29417721      -0.54857874
H       -2.41583484      -1.48208489       0.10020977
H       -2.35991653      -1.11214346      -1.59247158
H       -1.97601448       1.76210960       1.49862358
18
Frame=12 idx=004797 GeodesicLength=0.8764666806147337 rxn_smarts="[C:1]([C:2]([C:3]([C@@:4]([C:5]([H:15])([H:16])[H:17])([O:6][H:18])[H:14])([H:12])[H:13])([H:10])[H:11])([H:7])([H:8])[H:9]>>[C:1]([C:2]([C:3]([C:4][O:6][H:18])([H:12])[H:13])([H:10])[H:11])([H:7])([H:8])[H:9].[C:5]([H:14])([H:15])([H:16])[H:17]"
C        2.69996957      -0.22366836      -0.20758760
C        1.41192723       0.58477747      -0.12072388
C        0.25060015      -0.22428786       0.44820720
C       -1.02388064       0.55859176       0.40038291
C       -2.48900666      -0.64749988      -0.64085105
O       -1.24737459       1.14499813       1.60190062
H        3.01042196      -0.57848707       0.77818880
H        2.56516796      -1.09988361      -0.84791737
H        3.51545801       0.36804760      -0.62670045
H        1.13539072       0.94620514      -1.11583138
H        1.56502767       1.46844593       0.50401758
H        0.14075365      -1.14858087      -0.12992038
H        0.46735525      -0.58340325       1.46157296
H       -1.74593876       0.55421280      -0.85623728
H       -3.51994765      -0.29135106      -0.58852834
H       -2.41652026      -1.49976303       0.03735268
H       -2.32601244      -1.07400077      -1.63301671
H       -1.99339118       1.74564692       1.53569170
18
Frame=13 idx=004797 GeodesicLength=0.9519315949994952 rxn_smarts="[C:1]([C:2]([C:3]([C@@:4]([C:5]([H:15])([H:16])[H:17])([O:6][H:18])[H:14])([H:12])[H:13])([H:10])[H:11])([H:7])([H:8])[H:9]>>[C:1]([C:2]([C:3]([C:4][O:6][H:18])([H:12])[H:13])([H:10])[H:11])([H:7])([H:8])[H:9].[C:5]([H:14])([H:15])([H:16])[H:17]"
C        2.68595990      -0.22867140      -0.22459281
C        1.39584700       0.57544832      -0.12861183
C        0.25549912      -0.22041048       0.49711147
C       -1.03164458       0.54194800       0.44577874
C       -2.46654553      -0.63606754      -0.67146081
O       -1.24561103       1.15272992       1.63740652
H        3.02456923      -0.55149290       0.76291567
H        2.53877087      -1.12486727      -0.83389171
H        3.48666644       0.35363646      -0.68345463
H        1.09144118       0.90344813      -1.12719274
H        1.55921078       1.47966702       0.46320045
H        0.13986465      -1.16785026      -0.04180377
H        0.49687052      -0.54094690       1.51760711
H       -1.72102166       0.57598200      -0.85682613
H       -3.50196612      -0.29129052      -0.62875956
H       -2.41092616      -1.51730073      -0.02851317
H       -2.28665884      -1.03377798      -1.67299416
H       -2.01032576       1.72981613       1.57408139
18
Frame=14 idx=004797 GeodesicLength=1.0287973948861897 rxn_smarts="[C:1]([C:2]([C:3]([C@@:4]([C:5]([H:15])([H:16])[H:17])([O:6][H:18])[H:14])([H:12])[H:13])([H:10])[H:11])([H:7])([H:8])[H:9]>>[C:1]([C:2]([C:3]([C:4][O:6][H:18])([H:12])[H:13])([H:10])[H:11])([H:7])([H:8])[H:9].[C:5]([H:14])([H:15])([H:16])[H:17]"
C        2.66953764      -0.23516516      -0.24187953
C        1.37785186       0.56525462      -0.13650776
C        0.26001793      -0.21495373       0.54565064
C       -1.04055036       0.52509930       0.49186526
C       -2.44047927      -0.62483356      -0.70168501
O       -1.24379038       1.16200952       1.67236877
H        3.03636249      -0.52562544       0.74560078
H        2.51048587      -1.15055662      -0.81889881
H        3.45451210       0.33608845      -0.74009791
H        1.04553102       0.85936029      -1.13676912
H        1.55074741       1.48920664       0.42105069
H        0.13921723      -1.18411978       0.04718001
H        0.52637285      -0.49573426       1.57142375
H       -1.69691184       0.59972747      -0.85502190
H       -3.48102877      -0.29413250      -0.66883950
H       -2.39835456      -1.53447643      -0.09725693
H       -2.24229157      -0.99119473      -1.71205616
H       -2.02722965       1.71404593       1.61387273
18
Frame=15 idx=004797 GeodesicLength=1.1074295954625855 rxn_smarts="[C:1]([C:2]([C:3]([C@@:4]([C:5]([H:15])([H:16])[H:17])([O:6][H:18])[H:14])([H:12])[H:13])([H:10])[H:11])([H:7])([H:8])[H:9]>>[C:1]([C:2]([C:3]([C:4][O:6][H:18])([H:12])[H:13])([H:10])[H:11])([H:7])([H:8])[H:9].[C:5]([H:14])([H:15])([H:16])[H:17]"
C        2.65074421      -0.24315855      -0.25929618
C        1.35795385       0.55416670      -0.14443101
C        0.26412521      -0.20794632       0.59353111
C       -1.05054274       0.50801650       0.53849673
C       -2.41082978      -0.61373157      -0.73135388
O       -1.24196809       1.17269675       1.70651386
H        3.04572994      -0.50090431       0.72639872
H        2.48048073      -1.17692123      -0.80279930
H        3.41904645       0.31539660      -0.79635823
H        0.99779304       0.81394783      -1.14457383
H        1.53953243       1.49696273       0.37759932
H        0.13891361      -1.19731560       0.13658128
H        0.55566584      -0.44794388       1.62260024
H       -1.67405888       0.62551422      -0.85082517
H       -3.45708333      -0.30000382      -0.70847663
H       -2.37820574      -1.55105281      -0.16880922
H       -2.19331444      -0.94595489      -1.74989151
H       -2.04398231       1.69823166       1.65509370
18
Frame=16 idx=004797 GeodesicLength=1.1882822178754644 rxn_smarts="[C:1]([C:2]([C:3]([C@@:4]([C:5]([H:15])([H:16])[H:17])([O:6][H:18])[H:14])([H:12])[H:13])([H:10])[H:11])([H:7])([H:8])[H:9]>>[C:1]([C:2]([C:3]([C:4][O:6][H:18])([H:12])[H:13])([H:10])[H:11])([H:7])([H:8])[H:9].[C:5]([H:14])([H:15])([H:16])[H:17]"
C        2.62963132      -0.25260601      -0.27670660
C        1.33613942       0.54214191      -0.15238211
C        0.26778557      -0.19949506       0.64049566
C       -1.06156278       0.49058385       0.58556247
C       -2.37764924      -0.60268550      -0.76032987
O       -1.24028819       1.18444051       1.73965652
H        3.05262515      -0.47731026       0.70544118
H        2.44895372      -1.20387125      -0.78548500
H        3.38032121       0.29166491      -0.85195559
H        0.94830519       0.76719962      -1.15059665
H        1.52541509       1.50282803       0.33290032
H        0.13907529      -1.20747258       0.22598973
H        0.58457206      -0.39783412       1.67077030
H       -1.65286626       0.65331442      -0.84427702
H       -3.43007244      -0.30900255      -0.74746278
H       -2.34996498      -1.56668652      -0.24304482
H       -2.14021716      -0.89778889      -1.78619674
H       -2.06020298       1.68257947       1.69762102
