15
Frame=0 idx=006583 GeodesicLength=0.0 rxn_smarts="[C:1]([C@@:2]([C:3]([C:4]#[C:5][H:14])([H:12])[H:13])([C:6]#[C:7][H:15])[H:11])([H:8])([H:9])[H:10]>>[C:1]([C@:2]1([C:6]#[C:7][H:15])[C:3]([H:12])([H:13])[C@@:4]1([C:5][H:14])[H:11])([H:8])([H:9])[H:10]"
C       -0.05751457      -1.50773372      -0.47962685
C       -0.31097622      -0.07379781      -0.10899026
C        0.18433723       1.05251346      -0.99805069
C        1.23174393       0.87366020       0.00479619
C        2.55239012       0.71548409       0.14991062
C       -1.45227181       0.18291978       0.71823555
C       -2.41288641       0.39241638       1.40524339
H       -0.95059352      -1.91674267      -0.96018122
H        0.78878052      -1.58494220      -1.15975204
H        0.14789098      -2.11356547       0.40334481
H        0.67009454       0.61252029       0.99312288
H        0.45367884       0.75423827      -2.00748606
H       -0.42042407       1.95475794      -0.96694108
H        2.84158218       0.07657032       0.99277901
H       -3.26583170       0.58170119       2.01359573
15
Frame=1 idx=006583 GeodesicLength=0.07645443387754941 rxn_smarts="[C:1]([C@@:2]([C:3]([C:4]#[C:5][H:14])([H:12])[H:13])([C:6]#[C:7][H:15])[H:11])([H:8])([H:9])[H:10]>>[C:1]([C@:2]1([C:6]#[C:7][H:15])[C:3]([H:12])([H:13])[C@@:4]1([C:5][H:14])[H:11])([H:8])([H:9])[H:10]"
C       -0.06394415      -1.50867591      -0.47215671
C       -0.30426503      -0.07484942      -0.08877940
C        0.18186767       1.04988221      -0.98347765
C        1.24602276       0.86940242       0.00534901
C        2.56667734       0.70268917       0.10353963
C       -1.45269990       0.18290646       0.72983758
C       -2.42272895       0.39420996       1.40268867
H       -0.95230395      -1.89929944      -0.97595452
H        0.79410995      -1.59180335      -1.13669293
H        0.11480857      -2.12724931       0.40775090
H        0.67618457       0.59863174       1.00740874
H        0.43405340       0.75276158      -1.99741590
H       -0.41144471       1.95899206      -0.93844138
H        2.90140341       0.12018024       0.96894862
H       -3.30774097       0.57222160       1.96739535
15
Frame=2 idx=006583 GeodesicLength=0.15279704143671174 rxn_smarts="[C:1]([C@@:2]([C:3]([C:4]#[C:5][H:14])([H:12])[H:13])([C:6]#[C:7][H:15])[H:11])([H:8])([H:9])[H:10]>>[C:1]([C@:2]1([C:6]#[C:7][H:15])[C:3]([H:12])([H:13])[C@@:4]1([C:5][H:14])[H:11])([H:8])([H:9])[H:10]"
C       -0.06939378      -1.51081812      -0.46577195
C       -0.29785738      -0.07795593      -0.06794852
C        0.17836305       1.04680794      -0.96658383
C        1.25932687       0.86385882       0.00757667
C        2.57853844       0.68985767       0.05843624
C       -1.45378063       0.17892459       0.74211280
C       -2.43411798       0.38934856       1.39995353
H       -0.95219351      -1.88324744      -0.99237111
H        0.79979166      -1.59864199      -1.11508548
H        0.08364597      -2.14234682       0.40974569
H        0.68098335       0.58231553       1.02349598
H        0.41337710       0.75253795      -1.98521228
H       -0.40380006       1.96212093      -0.90659825
H        2.96265607       0.16887274       0.94126716
H       -3.34553918       0.57836559       1.91698336
15
Frame=3 idx=006583 GeodesicLength=0.22873462617615953 rxn_smarts="[C:1]([C@@:2]([C:3]([C:4]#[C:5][H:14])([H:12])[H:13])([C:6]#[C:7][H:15])[H:11])([H:8])([H:9])[H:10]>>[C:1]([C@:2]1([C:6]#[C:7][H:15])[C:3]([H:12])([H:13])[C@@:4]1([C:5][H:14])[H:11])([H:8])([H:9])[H:10]"
C       -0.07730444      -1.51138191      -0.45773335
C       -0.29184656      -0.07863927      -0.04799060
C        0.17808048       1.04399807      -0.95131593
C        1.27406973       0.85747368       0.00954485
C        2.58985716       0.67376881       0.01536975
C       -1.45600752       0.18080139       0.75126117
C       -2.44635201       0.39377642       1.39293913
H       -0.95397551      -1.86486542      -1.00691433
H        0.80304294      -1.60685418      -1.09075744
H        0.04805861      -2.15412749       0.41399235
H        0.68466511       0.56839938       1.03943947
H        0.39654382       0.75084342      -1.97369227
H       -0.39089024       1.96654645      -0.87865815
H        3.02355626       0.21897459       0.91065150
H       -3.38149784       0.56128606       1.87386384
15
Frame=4 idx=006583 GeodesicLength=0.3042630379663891 rxn_smarts="[C:1]([C@@:2]([C:3]([C:4]#[C:5][H:14])([H:12])[H:13])([C:6]#[C:7][H:15])[H:11])([H:8])([H:9])[H:10]>>[C:1]([C@:2]1([C:6]#[C:7][H:15])[C:3]([H:12])([H:13])[C@@:4]1([C:5][H:14])[H:11])([H:8])([H:9])[H:10]"
C       -0.08398412      -1.51302554      -0.45061763
C       -0.28620252      -0.08119330      -0.02764651
C        0.17701447       1.04073271      -0.93410468
C        1.28776172       0.85008721       0.01329066
C        2.59880678       0.65810469      -0.02537840
C       -1.45923792       0.17904140       0.76028620
C       -2.45958956       0.39208387       1.38609259
H       -0.95346242      -1.84800052      -1.02215138
H        0.80710925      -1.61498893      -1.06742081
H        0.01449088      -2.16699173       0.41617538
H        0.68649631       0.55263297       1.05717152
H        0.37939993       0.75019545      -1.96028309
H       -0.37920793       1.96977824      -0.84817130
H        3.08445062       0.27262021       0.87471980
H       -3.41384549       0.55892328       1.82803764
15
Frame=5 idx=006583 GeodesicLength=0.37938589497815034 rxn_smarts="[C:1]([C@@:2]([C:3]([C:4]#[C:5][H:14])([H:12])[H:13])([C:6]#[C:7][H:15])[H:11])([H:8])([H:9])[H:10]>>[C:1]([C@:2]1([C:6]#[C:7][H:15])[C:3]([H:12])([H:13])[C@@:4]1([C:5][H:14])[H:11])([H:8])([H:9])[H:10]"
C       -0.09221313      -1.51371367      -0.44268586
C       -0.28106990      -0.08233588      -0.00811175
C        0.17846820       1.03755964      -0.91780364
C        1.30230153       0.84161141       0.01751578
C        2.60702428       0.63984770      -0.06320025
C       -1.46383929       0.18096040       0.76626064
C       -2.47389972       0.39642694       1.37528249
H       -0.95365553      -1.82992575      -1.03641957
H        0.80950970      -1.62406892      -1.04241233
H       -0.02182559      -2.17745469       0.41937688
H        0.68656437       0.53822854       1.07532722
H        0.36569405       0.74875519      -1.94710321
H       -0.36359204       1.97369745      -0.82027947
H        3.14459247       0.32823900       0.83502902
H       -3.44405940       0.54217263       1.78922405
15
Frame=6 idx=006583 GeodesicLength=0.45353641942634404 rxn_smarts="[C:1]([C@@:2]([C:3]([C:4]#[C:5][H:14])([H:12])[H:13])([C:6]#[C:7][H:15])[H:11])([H:8])([H:9])[H:10]>>[C:1]([C@:2]1([C:6]#[C:7][H:15])[C:3]([H:12])([H:13])[C@@:4]1([C:5][H:14])[H:11])([H:8])([H:9])[H:10]"
C       -0.09855288      -1.51490234      -0.43510608
C       -0.27620411      -0.08454633       0.01150185
C        0.17934915       1.03426008      -0.90044061
C        1.31571096       0.83340273       0.02325912
C        2.61317465       0.62365326      -0.09782510
C       -1.46966449       0.18022876       0.77108051
C       -2.48865868       0.39622768       1.36470035
H       -0.95043928      -1.81321222      -1.05124711
H        0.81383899      -1.63270215      -1.01707026
H       -0.05604467      -2.18805079       0.42144342
H        0.68421616       0.52377957       1.09495041
H        0.35248055       0.74808222      -1.93269836
H       -0.34936955       1.97663971      -0.79148576
H        3.20149422       0.38088939       0.78876272
H       -3.47133102       0.53625043       1.75017489
15
Frame=7 idx=006583 GeodesicLength=0.5270969329941116 rxn_smarts="[C:1]([C@@:2]([C:3]([C:4]#[C:5][H:14])([H:12])[H:13])([C:6]#[C:7][H:15])[H:11])([H:8])([H:9])[H:10]>>[C:1]([C@:2]1([C:6]#[C:7][H:15])[C:3]([H:12])([H:13])[C@@:4]1([C:5][H:14])[H:11])([H:8])([H:9])[H:10]"
C       -0.10437740      -1.51609450      -0.42754111
C       -0.27168436      -0.08692878       0.03087948
C        0.18089440       1.03088861      -0.88272012
C        1.32891351       0.82471805       0.03009212
C        2.61811185       0.60736830      -0.12967391
C       -1.47661289       0.17924210       0.77408748
C       -2.50406462       0.39583918       1.35255532
H       -0.94557119      -1.79692913      -1.06596621
H        0.81846575      -1.64143055      -0.99123171
H       -0.08976923      -2.19795045       0.42300295
H        0.67982933       0.50963547       1.11562792
H        0.34078430       0.74762224      -1.91768017
H       -0.33440239       1.97925780      -0.76286399
H        3.25600146       0.43325875       0.73761248
H       -3.49651851       0.53150293       1.71381946
15
Frame=8 idx=006583 GeodesicLength=0.6001882587620253 rxn_smarts="[C:1]([C@@:2]([C:3]([C:4]#[C:5][H:14])([H:12])[H:13])([C:6]#[C:7][H:15])[H:11])([H:8])([H:9])[H:10]>>[C:1]([C@:2]1([C:6]#[C:7][H:15])[C:3]([H:12])([H:13])[C@@:4]1([C:5][H:14])[H:11])([H:8])([H:9])[H:10]"
C       -0.11006227      -1.51747913      -0.42035165
C       -0.26762264      -0.08966815       0.04980529
C        0.18336708       1.02722431      -0.86472133
C        1.34203717       0.81500415       0.03807018
C        2.62210169       0.59018876      -0.15838914
C       -1.48474544       0.17804679       0.77491776
C       -2.51980635       0.39523141       1.33923861
H       -0.93943317      -1.78105221      -1.08100362
H        0.82303086      -1.65058353      -0.96515090
H       -0.12356689      -2.20742920       0.42363112
H        0.67331097       0.49523351       1.13729484
H        0.33099030       0.74720552      -1.90215646
H       -0.31826317       1.98143013      -0.73446397
H        3.30816498       0.48833825       0.68228749
H       -3.51950310       0.52830938       1.68099179
15
Frame=9 idx=006583 GeodesicLength=0.6726365033992724 rxn_smarts="[C:1]([C@@:2]([C:3]([C:4]#[C:5][H:14])([H:12])[H:13])([C:6]#[C:7][H:15])[H:11])([H:8])([H:9])[H:10]>>[C:1]([C@:2]1([C:6]#[C:7][H:15])[C:3]([H:12])([H:13])[C@@:4]1([C:5][H:14])[H:11])([H:8])([H:9])[H:10]"
C       -0.11456165      -1.51862289      -0.41286342
C       -0.26377110      -0.09231747       0.06871009
C        0.18617843       1.02379942      -0.84632633
C        1.35482658       0.80564904       0.04716401
C        2.62506785       0.57445224      -0.18470536
C       -1.49379016       0.17651692       0.77409781
C       -2.53612882       0.39402145       1.32450967
H       -0.93093005      -1.76578443      -1.09547855
H        0.82853458      -1.65925719      -0.93829396
H       -0.15579043      -2.21593580       0.42411069
H        0.66471907       0.48180155       1.16006564
H        0.32239755       0.74724920      -1.88602660
H       -0.30210516       1.98341609      -0.70619769
H        3.35667278       0.53850011       0.62128308
H       -3.54131948       0.52651177       1.64995095
15
Frame=10 idx=006583 GeodesicLength=0.7444348711900596 rxn_smarts="[C:1]([C@@:2]([C:3]([C:4]#[C:5][H:14])([H:12])[H:13])([C:6]#[C:7][H:15])[H:11])([H:8])([H:9])[H:10]>>[C:1]([C@:2]1([C:6]#[C:7][H:15])[C:3]([H:12])([H:13])[C@@:4]1([C:5][H:14])[H:11])([H:8])([H:9])[H:10]"
C       -0.11758061      -1.51933826      -0.40497399
C       -0.26004664      -0.09462466       0.08752407
C        0.18911704       1.02080914      -0.82782195
C        1.36726145       0.79716147       0.05695557
C        2.62703652       0.56049626      -0.20919766
C       -1.50356118       0.17476999       0.77162367
C       -2.55280072       0.39205029       1.30859229
H       -0.91979913      -1.75108588      -1.10922259
H        0.83521384      -1.66718005      -0.91065657
H       -0.18603537      -2.22328441       0.42459852
H        0.65412733       0.46993564       1.18363771
H        0.31466598       0.74782693      -1.86958692
H       -0.28627827       1.98537844      -0.67836364
H        3.40067953       0.58148244       0.55601075
H       -3.56199977       0.52560266       1.62088073
15
Frame=11 idx=006583 GeodesicLength=0.8159107386701441 rxn_smarts="[C:1]([C@@:2]([C:3]([C:4]#[C:5][H:14])([H:12])[H:13])([C:6]#[C:7][H:15])[H:11])([H:8])([H:9])[H:10]>>[C:1]([C@:2]1([C:6]#[C:7][H:15])[C:3]([H:12])([H:13])[C@@:4]1([C:5][H:14])[H:11])([H:8])([H:9])[H:10]"
C       -0.12134793      -1.51931586      -0.39680070
C       -0.25678593      -0.09587040       0.10559318
C        0.19404740       1.01795059      -0.81002336
C        1.38038257       0.78777262       0.06737916
C        2.62905598       0.54464183      -0.23074200
C       -1.51427208       0.17563865       0.76603025
C       -2.56986449       0.39387805       1.28971076
H       -0.90819114      -1.73574725      -1.12273167
H        0.84094306      -1.67561571      -0.88164363
H       -0.21796527      -2.22878828       0.42519475
H        0.64145558       0.45927639       1.20764679
H        0.30992537       0.74806707      -1.85350110
H       -0.26759283       1.98778521      -0.65236009
H        3.44177030       0.62494294       0.48756383
H       -3.58156058       0.51538416       1.59868384
15
Frame=12 idx=006583 GeodesicLength=0.8869806125101841 rxn_smarts="[C:1]([C@@:2]([C:3]([C:4]#[C:5][H:14])([H:12])[H:13])([C:6]#[C:7][H:15])[H:11])([H:8])([H:9])[H:10]>>[C:1]([C@:2]1([C:6]#[C:7][H:15])[C:3]([H:12])([H:13])[C@@:4]1([C:5][H:14])[H:11])([H:8])([H:9])[H:10]"
C       -0.12405863      -1.51912084      -0.38848801
C       -0.25365073      -0.09707282       0.12371053
C        0.19918053       1.01530968      -0.79183298
C        1.39339381       0.77854209       0.07849210
C        2.63045043       0.52967288      -0.25066443
C       -1.52533759       0.17611433       0.75916879
C       -2.58709597       0.39490591       1.26968827
H       -0.89446140      -1.72089497      -1.13576156
H        0.84734047      -1.68365185      -0.85210840
H       -0.24842140      -2.23363577       0.42533565
H        0.62709719       0.44935711       1.23247034
H        0.30586486       0.74882850      -1.83695511
H       -0.24895991       1.99002683      -0.62610431
H        3.47877463       0.66470967       0.41528587
H       -3.60011628       0.50690925       1.57776326
15
Frame=13 idx=006583 GeodesicLength=0.957825902818539 rxn_smarts="[C:1]([C@@:2]([C:3]([C:4]#[C:5][H:14])([H:12])[H:13])([C:6]#[C:7][H:15])[H:11])([H:8])([H:9])[H:10]>>[C:1]([C@:2]1([C:6]#[C:7][H:15])[C:3]([H:12])([H:13])[C@@:4]1([C:5][H:14])[H:11])([H:8])([H:9])[H:10]"
C       -0.12507683      -1.51955031      -0.38019948
C       -0.25026889      -0.09951931       0.14302558
C        0.20348406       1.01260499      -0.77157238
C        1.40620887       0.76906621       0.09064315
C        2.63092134       0.51590869      -0.27005994
C       -1.53589098       0.17373220       0.75359916
C       -2.60381798       0.39162039       1.25117582
H       -0.87866577      -1.70705357      -1.14786350
H        0.85467723      -1.69121073      -0.82333825
H       -0.27560702      -2.23942110       0.42439759
H        0.61213865       0.43835646       1.25888758
H        0.30057821       0.75076752      -1.81859722
H       -0.23173972       1.99146659      -0.59662837
H        3.51199813       0.70364731       0.33670296
H       -3.61893930       0.50958466       1.54982730
15
Frame=14 idx=006583 GeodesicLength=1.028280076628989 rxn_smarts="[C:1]([C@@:2]([C:3]([C:4]#[C:5][H:14])([H:12])[H:13])([C:6]#[C:7][H:15])[H:11])([H:8])([H:9])[H:10]>>[C:1]([C@:2]1([C:6]#[C:7][H:15])[C:3]([H:12])([H:13])[C@@:4]1([C:5][H:14])[H:11])([H:8])([H:9])[H:10]"
C       -0.12640067      -1.51864603      -0.37150750
C       -0.24741289      -0.10004874       0.16100334
C        0.20968936       1.01050465      -0.75306584
C        1.41948591       0.75984997       0.10280170
C        2.63163943       0.50162725      -0.28676197
C       -1.54743629       0.17482248       0.74370322
C       -2.62126110       0.39311153       1.22789825
H       -0.86149840      -1.69251710      -1.15983760
H        0.86164946      -1.69866640      -0.79251093
H       -0.30425100      -2.24247617       0.42387280
H        0.59447140       0.43014657       1.28498200
H        0.29853049       0.75236772      -1.80154083
H       -0.21208772       1.99376828      -0.57053425
H        3.54046584       0.73688953       0.25809117
H       -3.63558383       0.49926648       1.53340644
15
Frame=15 idx=006583 GeodesicLength=1.0985414059842613 rxn_smarts="[C:1]([C@@:2]([C:3]([C:4]#[C:5][H:14])([H:12])[H:13])([C:6]#[C:7][H:15])[H:11])([H:8])([H:9])[H:10]>>[C:1]([C@:2]1([C:6]#[C:7][H:15])[C:3]([H:12])([H:13])[C@@:4]1([C:5][H:14])[H:11])([H:8])([H:9])[H:10]"
C       -0.12636087      -1.51770539      -0.36263535
C       -0.24444156      -0.10080189       0.17951176
C        0.21555745       1.00868727      -0.73365664
C        1.43271068       0.75094050       0.11536259
C        2.63171964       0.48853340      -0.30298279
C       -1.55864576       0.17476922       0.73374358
C       -2.63847175       0.39250864       1.20431667
H       -0.84227519      -1.67848038      -1.17095842
H        0.86941290      -1.70553211      -0.76162082
H       -0.33060229      -2.24540250       0.42277665
H        0.57574026       0.42221492       1.31193807
H        0.29604145       0.75485315      -1.78366108
H       -0.19316404       1.99584370      -0.54307541
H        3.56449839       0.76617781       0.17601043
H       -3.65171930       0.49339366       1.51493073
15
Frame=16 idx=006583 GeodesicLength=1.168680270348556 rxn_smarts="[C:1]([C@@:2]([C:3]([C:4]#[C:5][H:14])([H:12])[H:13])([C:6]#[C:7][H:15])[H:11])([H:8])([H:9])[H:10]>>[C:1]([C@:2]1([C:6]#[C:7][H:15])[C:3]([H:12])([H:13])[C@@:4]1([C:5][H:14])[H:11])([H:8])([H:9])[H:10]"
C       -0.12513609      -1.51659458      -0.35347598
C       -0.24130543      -0.10159398       0.19857557
C        0.22121125       1.00722944      -0.71341952
C        1.44605234       0.74231383       0.12812681
C        2.63125644       0.47649245      -0.31903207
C       -1.56937366       0.17394791       0.72382221
C       -2.65532112       0.39039376       1.18036875
H       -0.82128042      -1.66471243      -1.18107252
H        0.87777353      -1.71181708      -0.73061787
H       -0.35487546      -2.24805461       0.42128419
H        0.55611259       0.41463840       1.33967749
H        0.29310349       0.75823149      -1.76501451
H       -0.17471478       1.99783239      -0.51433054
H        3.58408939       0.79132845       0.09085819
H       -3.66759208       0.49036456       1.49424981
