13
Frame=0 idx=008315 GeodesicLength=0.0 rxn_smarts="[C:1]([O:2][c:3]1[c:4]([H:11])[n:5]([H:12])[c:6]([H:13])[n:7]1)([H:8])([H:9])[H:10]>>[C:1]([O:2][C-:3](/[C:4](=[N:5]/[H:12])[H:11])[N+:7]#[C:6][H:13])([H:8])([H:9])[H:10]"
C        2.21245657       0.27187390      -0.40432553
O        1.23046620      -0.70019909      -0.09924730
C       -0.02749569      -0.23435299       0.03176175
C       -1.10511162      -1.18893934       0.22636811
N       -2.27393729      -0.72531617       0.42364318
C       -1.45967109       1.61920896      -0.12913102
N       -0.37888383       0.98959861      -0.02762410
H        1.98410831       0.77391300      -1.34814307
H        3.15531680      -0.26302099      -0.48642861
H        2.27956932       1.02126102       0.38924676
H       -0.85101152      -2.24769700       0.16370261
H       -2.97625460      -1.45596946       0.48007583
H       -1.78955157       2.13963949       0.78010144
13
Frame=1 idx=008315 GeodesicLength=0.052053575778592966 rxn_smarts="[C:1]([O:2][c:3]1[c:4]([H:11])[n:5]([H:12])[c:6]([H:13])[n:7]1)([H:8])([H:9])[H:10]>>[C:1]([O:2][C-:3](/[C:4](=[N:5]/[H:12])[H:11])[N+:7]#[C:6][H:13])([H:8])([H:9])[H:10]"
C        2.21402248       0.27269315      -0.40710354
O        1.23536826      -0.70102887      -0.09613351
C       -0.02267892      -0.23773466       0.04168668
C       -1.09869159      -1.19081515       0.23727031
N       -2.27011117      -0.71334171       0.40428698
C       -1.47325314       1.59357782      -0.11731435
N       -0.37660421       0.98784298      -0.02279170
H        1.98113603       0.77166828      -1.35137621
H        3.15779381      -0.26037449      -0.49089868
H        2.28262465       1.02460143       0.38390014
H       -0.85321649      -2.25056249       0.16687468
H       -2.98125840      -1.43395429       0.47128650
H       -1.79513132       2.13742801       0.78031270
13
Frame=2 idx=008315 GeodesicLength=0.10408416353757029 rxn_smarts="[C:1]([O:2][c:3]1[c:4]([H:11])[n:5]([H:12])[c:6]([H:13])[n:7]1)([H:8])([H:9])[H:10]>>[C:1]([O:2][C-:3](/[C:4](=[N:5]/[H:12])[H:11])[N+:7]#[C:6][H:13])([H:8])([H:9])[H:10]"
C        2.21548218       0.27354812      -0.40950182
O        1.23989033      -0.70191543      -0.09394579
C       -0.01828228      -0.24118576       0.05003331
C       -1.09304218      -1.19278395       0.24461072
N       -2.26579288      -0.70191786       0.38569600
C       -1.48583800       1.56884424      -0.10538097
N       -0.37455161       0.98608807      -0.01870896
H        1.97874029       0.77011567      -1.35401109
H        3.16016011      -0.25771397      -0.49474257
H        2.28510284       1.02741219       0.37948019
H       -0.85522511      -2.25352017       0.17121316
H       -2.98578396      -1.41188378       0.46513107
H       -1.80085973       2.13491264       0.78012675
13
Frame=3 idx=008315 GeodesicLength=0.15611799523693098 rxn_smarts="[C:1]([O:2][c:3]1[c:4]([H:11])[n:5]([H:12])[c:6]([H:13])[n:7]1)([H:8])([H:9])[H:10]>>[C:1]([O:2][C-:3](/[C:4](=[N:5]/[H:12])[H:11])[N+:7]#[C:6][H:13])([H:8])([H:9])[H:10]"
C        2.21677594       0.27428018      -0.41208779
O        1.24442571      -0.70277075      -0.09103624
C       -0.01373399      -0.24451637       0.05984597
C       -1.08778660      -1.19477388       0.24974675
N       -2.26121342      -0.69097136       0.36656133
C       -1.49695521       1.54500638      -0.09329237
N       -0.37220790       0.98451980      -0.01270779
H        1.97547422       0.76834793      -1.35668648
H        3.16222937      -0.25528941      -0.49947587
H        2.28810119       1.03017838       0.37473170
H       -0.85690663      -2.25650092       0.17641237
H       -2.99004889      -1.38972379       0.45901012
H       -1.80815379       2.13221382       0.77897831
13
Frame=4 idx=008315 GeodesicLength=0.2081431546118262 rxn_smarts="[C:1]([O:2][c:3]1[c:4]([H:11])[n:5]([H:12])[c:6]([H:13])[n:7]1)([H:8])([H:9])[H:10]>>[C:1]([O:2][C-:3](/[C:4](=[N:5]/[H:12])[H:11])[N+:7]#[C:6][H:13])([H:8])([H:9])[H:10]"
C        2.21795039       0.27497434      -0.41461578
O        1.24884185      -0.70365616      -0.08818331
C       -0.00924382      -0.24785950       0.06981093
C       -1.08287011      -1.19683253       0.25300078
N       -2.25639475      -0.68047172       0.34702527
C       -1.50693188       1.52194858      -0.08127576
N       -0.36975684       0.98302597      -0.00578469
H        1.97195091       0.76686597      -1.35907065
H        3.16409866      -0.25296883      -0.50452173
H        2.29118805       1.03263252       0.37027147
H       -0.85848121      -2.25956503       0.18202061
H       -2.99390989      -1.36735547       0.45434059
H       -1.81644136       2.12926187       0.77698226
13
Frame=5 idx=008315 GeodesicLength=0.2601599247518467 rxn_smarts="[C:1]([O:2][c:3]1[c:4]([H:11])[n:5]([H:12])[c:6]([H:13])[n:7]1)([H:8])([H:9])[H:10]>>[C:1]([O:2][C-:3](/[C:4](=[N:5]/[H:12])[H:11])[N+:7]#[C:6][H:13])([H:8])([H:9])[H:10]"
C        2.21901962       0.27568652      -0.41702842
O        1.25308639      -0.70460224      -0.08577276
C       -0.00492032      -0.25130561       0.07922840
C       -1.07820222      -1.19899862       0.25489758
N       -2.25130345      -0.67040542       0.32786072
C       -1.51605838       1.49953752      -0.06930872
N       -0.36734321       0.98150935       0.00138677
H        1.96846390       0.76584613      -1.36111820
H        3.16582841      -0.25064900      -0.50959366
H        2.29410533       1.03473009       0.36628250
H       -0.86002498      -2.26275518       0.18815313
H       -2.99742625      -1.34469184       0.45064188
H       -1.82522485       2.12609829       0.77437077
13
Frame=6 idx=008315 GeodesicLength=0.3121619282583813 rxn_smarts="[C:1]([O:2][c:3]1[c:4]([H:11])[n:5]([H:12])[c:6]([H:13])[n:7]1)([H:8])([H:9])[H:10]>>[C:1]([O:2][C-:3](/[C:4](=[N:5]/[H:12])[H:11])[N+:7]#[C:6][H:13])([H:8])([H:9])[H:10]"
C        2.22008496       0.27648437      -0.41894407
O        1.25712106      -0.70563525      -0.08407430
C       -0.00090109      -0.25494870       0.08725984
C       -1.07382466      -1.20138121       0.25499296
N       -2.24598594      -0.66076876       0.30960730
C       -1.52463690       1.47760015      -0.05781637
N       -0.36514767       0.97985674       0.00784446
H        1.96560178       0.76546271      -1.36252768
H        3.16759601      -0.24820502      -0.51386075
H        2.29650004       1.03644750       0.36328393
H       -0.86187830      -2.26612929       0.19274449
H       -3.00034863      -1.32161086       0.45072359
H       -1.83418066       2.12282762       0.77076661
13
Frame=7 idx=008315 GeodesicLength=0.3641588942777833 rxn_smarts="[C:1]([O:2][c:3]1[c:4]([H:11])[n:5]([H:12])[c:6]([H:13])[n:7]1)([H:8])([H:9])[H:10]>>[C:1]([O:2][C-:3](/[C:4](=[N:5]/[H:12])[H:11])[N+:7]#[C:6][H:13])([H:8])([H:9])[H:10]"
C        2.22116037       0.27738409      -0.42035536
O        1.26095030      -0.70675022      -0.08309228
C        0.00278225      -0.25880907       0.09376594
C       -1.06968482      -1.20401586       0.25356360
N       -2.24049950      -0.65153450       0.29298622
C       -1.53284066       1.45604763      -0.04673079
N       -0.36324933       0.97802307       0.01325827
H        1.96345314       0.76564308      -1.36336933
H        3.16944711      -0.24559597      -0.51717308
H        2.29828862       1.03787448       0.36122985
H       -0.86405935      -2.26970443       0.19564988
H       -3.00269193      -1.29814705       0.45403136
H       -1.84305621       2.11958474       0.76623573
13
Frame=8 idx=008315 GeodesicLength=0.41611921228997806 rxn_smarts="[C:1]([O:2][c:3]1[c:4]([H:11])[n:5]([H:12])[c:6]([H:13])[n:7]1)([H:8])([H:9])[H:10]>>[C:1]([O:2][C-:3](/[C:4](=[N:5]/[H:12])[H:11])[N+:7]#[C:6][H:13])([H:8])([H:9])[H:10]"
C        2.22213992       0.27830618      -0.42187033
O        1.26457647      -0.70796946      -0.08294893
C        0.00631558      -0.26278321       0.09963380
C       -1.06566322      -1.20665979       0.25177798
N       -2.23498301      -0.64266315       0.27612643
C       -1.54031792       1.43509583      -0.03546587
N       -0.36133572       0.97618487       0.01912301
H        1.96128291       0.76656983      -1.36394625
H        3.17112816      -0.24301019      -0.52097026
H        2.30005603       1.03872883       0.35963964
H       -0.86606454      -2.27334803       0.20078884
H       -3.00481375      -1.27440996       0.45655435
H       -1.85232091       2.11595826       0.76155758
13
Frame=9 idx=008315 GeodesicLength=0.46805068656705784 rxn_smarts="[C:1]([O:2][c:3]1[c:4]([H:11])[n:5]([H:12])[c:6]([H:13])[n:7]1)([H:8])([H:9])[H:10]>>[C:1]([O:2][C-:3](/[C:4](=[N:5]/[H:12])[H:11])[N+:7]#[C:6][H:13])([H:8])([H:9])[H:10]"
C        2.22315114       0.27934400      -0.42268513
O        1.26804608      -0.70916795      -0.08295210
C        0.00943433      -0.26694200       0.10388758
C       -1.06185980      -1.20962645       0.24846234
N       -2.22924772      -0.63403049       0.26384934
C       -1.54782175       1.41430990      -0.02455866
N       -0.35995206       0.97408549       0.02285777
H        1.96006669       0.76739322      -1.36418362
H        3.17302493      -0.24017082      -0.52295431
H        2.30089338       1.03985037       0.35869683
H       -0.86869794      -2.27713714       0.20196507
H       -3.00628411      -1.25095863       0.46196047
H       -1.86075317       2.11305046       0.75565442
13
Frame=10 idx=008315 GeodesicLength=0.5199702424255519 rxn_smarts="[C:1]([O:2][c:3]1[c:4]([H:11])[n:5]([H:12])[c:6]([H:13])[n:7]1)([H:8])([H:9])[H:10]>>[C:1]([O:2][C-:3](/[C:4](=[N:5]/[H:12])[H:11])[N+:7]#[C:6][H:13])([H:8])([H:9])[H:10]"
C        2.22408077       0.28038734      -0.42355253
O        1.27138729      -0.71041569      -0.08333652
C        0.01244121      -0.27117540       0.10782999
C       -1.05816256      -1.21263416       0.24460280
N       -2.22354818      -0.62563782       0.25204837
C       -1.55471760       1.39406007      -0.01343719
N       -0.35856016       0.97198626       0.02696422
H        1.95876992       0.76859378      -1.36427552
H        3.17479394      -0.23735813      -0.52521872
H        2.30172609       1.04067077       0.35799306
H       -0.87126720      -2.28096997       0.20430542
H       -3.00749639      -1.22759173       0.46669162
H       -1.86944713       2.11008469       0.74938500
13
Frame=11 idx=008315 GeodesicLength=0.5718600032825547 rxn_smarts="[C:1]([O:2][c:3]1[c:4]([H:11])[n:5]([H:12])[c:6]([H:13])[n:7]1)([H:8])([H:9])[H:10]>>[C:1]([O:2][C-:3](/[C:4](=[N:5]/[H:12])[H:11])[N+:7]#[C:6][H:13])([H:8])([H:9])[H:10]"
C        2.22499132       0.28147782      -0.42415645
O        1.27456725      -0.71166188      -0.08402469
C        0.01517606      -0.27548739       0.11079732
C       -1.05461349      -1.21574906       0.24002412
N       -2.21783965      -0.61735576       0.24329864
C       -1.56136970       1.37419248      -0.00219412
N       -0.35743127       0.96979971       0.03004267
H        1.95793148       0.76989219      -1.36420742
H        3.17660634      -0.23446474      -0.52675466
H        2.30210418       1.04148614       0.35764672
H       -0.87406444      -2.28484836       0.20554492
H       -3.00841047      -1.20492741       0.47159008
H       -1.87764759       2.10764627       0.74239288
13
Frame=12 idx=008315 GeodesicLength=0.6237240698724519 rxn_smarts="[C:1]([O:2][c:3]1[c:4]([H:11])[n:5]([H:12])[c:6]([H:13])[n:7]1)([H:8])([H:9])[H:10]>>[C:1]([O:2][C-:3](/[C:4](=[N:5]/[H:12])[H:11])[N+:7]#[C:6][H:13])([H:8])([H:9])[H:10]"
C        2.22583901       0.28257069      -0.42476081
O        1.27762379      -0.71290775      -0.08492368
C        0.01776474      -0.27982221       0.11336713
C       -1.05116804      -1.21886846       0.23502648
N       -2.21217273      -0.60919002       0.23597355
C       -1.56756686       1.35482830       0.00942604
N       -0.35636654       0.96762542       0.03298977
H        1.95714369       0.77131081      -1.36410708
H        3.17834302      -0.23159038      -0.52825551
H        2.30236020       1.04220192       0.35740399
H       -0.87689622      -2.28868056       0.20731566
H       -3.00917403      -1.18290394       0.47549542
H       -1.88573002       2.10542621       0.73504905
13
Frame=13 idx=008315 GeodesicLength=0.675560412702918 rxn_smarts="[C:1]([O:2][c:3]1[c:4]([H:11])[n:5]([H:12])[c:6]([H:13])[n:7]1)([H:8])([H:9])[H:10]>>[C:1]([O:2][C-:3](/[C:4](=[N:5]/[H:12])[H:11])[N+:7]#[C:6][H:13])([H:8])([H:9])[H:10]"
C        2.22665748       0.28367671      -0.42524555
O        1.28055599      -0.71414142      -0.08600620
C        0.02016456      -0.28418414       0.11534152
C       -1.04786836      -1.22201727       0.22926192
N       -2.20657615      -0.60111882       0.23039591
C       -1.57339966       1.33592689       0.02137192
N       -0.35542682       0.96544434       0.03545270
H        1.95658278       0.77279436      -1.36393039
H        3.18006621      -0.22871100      -0.52940893
H        2.30238403       1.04288129       0.35734788
H       -0.87983708      -2.29247403       0.20896492
H       -3.00972371      -1.16159639       0.47924699
H       -1.89357927       2.10351949       0.72720734
13
Frame=14 idx=008315 GeodesicLength=0.7273685014989031 rxn_smarts="[C:1]([O:2][c:3]1[c:4]([H:11])[n:5]([H:12])[c:6]([H:13])[n:7]1)([H:8])([H:9])[H:10]>>[C:1]([O:2][C-:3](/[C:4](=[N:5]/[H:12])[H:11])[N+:7]#[C:6][H:13])([H:8])([H:9])[H:10]"
C        2.22746604       0.28479820      -0.42556367
O        1.28336268      -0.71534792      -0.08724540
C        0.02234739      -0.28856136       0.11659530
C       -1.04474505      -1.22518939       0.22252333
N       -2.20107342      -0.59312340       0.22669654
C       -1.57892034       1.31747881       0.03371274
N       -0.35465154       0.96325689       0.03717322
H        1.95635401       0.77427281      -1.36369372
H        3.18181286      -0.22581972      -0.53003236
H        2.30210812       1.04358527       0.35747557
H       -0.88290331      -2.29620976       0.21034488
H       -3.01006341      -1.14109691       0.48311262
H       -1.90109404       2.10195648       0.71890093
13
Frame=15 idx=008315 GeodesicLength=0.7791531253155627 rxn_smarts="[C:1]([O:2][c:3]1[c:4]([H:11])[n:5]([H:12])[c:6]([H:13])[n:7]1)([H:8])([H:9])[H:10]>>[C:1]([O:2][C-:3](/[C:4](=[N:5]/[H:12])[H:11])[N+:7]#[C:6][H:13])([H:8])([H:9])[H:10]"
C        2.22827596       0.28594198      -0.42573223
O        1.28601937      -0.71656106      -0.08887835
C        0.02431372      -0.29297491       0.11703641
C       -1.04183129      -1.22838323       0.21455103
N       -2.19568573      -0.58521390       0.22448133
C       -1.58409879       1.29948152       0.04649390
N       -0.35401257       0.96106359       0.03824549
H        1.95648403       0.77596886      -1.36330752
H        3.18357596      -0.22292123      -0.53025755
H        2.30157314       1.04414706       0.35793447
H       -0.88606100      -2.29986525       0.21210460
H       -3.01019713      -1.12133781       0.48718135
H       -1.90835567       2.10065439       0.71014706
13
Frame=16 idx=008315 GeodesicLength=0.8309241503906172 rxn_smarts="[C:1]([O:2][c:3]1[c:4]([H:11])[n:5]([H:12])[c:6]([H:13])[n:7]1)([H:8])([H:9])[H:10]>>[C:1]([O:2][C-:3](/[C:4](=[N:5]/[H:12])[H:11])[N+:7]#[C:6][H:13])([H:8])([H:9])[H:10]"
C        2.22911983       0.28712020      -0.42560445
O        1.28851242      -0.71779270      -0.09096503
C        0.02600887      -0.29746131       0.11641397
C       -1.03921715      -1.23164327       0.20457830
N       -2.19043883      -0.57740918       0.22388436
C       -1.58898627       1.28188240       0.05963077
N       -0.35356606       0.95882792       0.03839456
H        1.95716126       0.77792816      -1.36265308
H        3.18541365      -0.21998531      -0.52979058
H        2.30066461       1.04454694       0.35891319
H       -0.88937794      -2.30344084       0.21380798
H       -3.00992449      -1.10222451       0.49269821
H       -1.91536990       2.09965151       0.70069181
