12
Frame=0 idx=003849 GeodesicLength=0.0 rxn_smarts="[N:1]#[C:2][C:3]([C@@:4]1([H:9])[C:5]([H:10])([H:11])[N:6]1[H:12])([H:7])[H:8]>>[N+:1](#[C-:2])[C:3]([C@@:4]1([H:9])[C:5]([H:10])([H:11])[N:6]1[H:12])([H:7])[H:8]"
N       -2.59072898       0.06563681      -0.43657889
C       -1.83470951      -0.06922163      -1.33745622
C       -0.89087278       0.76643041      -0.09957828
C        0.07535632      -0.23645423       0.44177401
C        1.24056705      -0.66735554      -0.34657474
N        1.39340024       0.32435928       0.71518765
H       -0.43617100       1.47365394      -0.78696561
H       -1.39097124       1.32346593       0.68849243
H       -0.34690676      -0.94354431       1.14784606
H        1.36703888      -0.28497958      -1.35267556
H        1.61844805      -1.66987723      -0.18351504
H        1.79554973      -0.08211381       1.55004420
12
Frame=1 idx=003849 GeodesicLength=0.057327297857198034 rxn_smarts="[N:1]#[C:2][C:3]([C@@:4]1([H:9])[C:5]([H:10])([H:11])[N:6]1[H:12])([H:7])[H:8]>>[N+:1](#[C-:2])[C:3]([C@@:4]1([H:9])[C:5]([H:10])([H:11])[N:6]1[H:12])([H:7])[H:8]"
N       -2.62123357       0.12718493      -0.45467867
C       -1.85361236      -0.11641408      -1.31815683
C       -0.89650826       0.75529736      -0.10219829
C        0.07794492      -0.24212462       0.43744443
C        1.25045571      -0.66192344      -0.34653479
N        1.39100003       0.32496808       0.72128337
H       -0.43928859       1.46147711      -0.78973158
H       -1.37148200       1.32543229       0.69304745
H       -0.34191233      -0.95431952       1.13999313
H        1.38032498      -0.27288260      -1.34968953
H        1.63323709      -1.66311132      -0.18688809
H        1.79107438      -0.08358419       1.55610940
12
Frame=2 idx=003849 GeodesicLength=0.1138929657129118 rxn_smarts="[N:1]#[C:2][C:3]([C@@:4]1([H:9])[C:5]([H:10])([H:11])[N:6]1[H:12])([H:7])[H:8]>>[N+:1](#[C-:2])[C:3]([C@@:4]1([H:9])[C:5]([H:10])([H:11])[N:6]1[H:12])([H:7])[H:8]"
N       -2.64694710       0.19039260      -0.48253440
C       -1.87216126      -0.16419471      -1.29558610
C       -0.90252813       0.74419649      -0.10299619
C        0.08097290      -0.24710386       0.43463308
C        1.25912128      -0.65702159      -0.34660620
N        1.38962925       0.32601099       0.72587169
H       -0.44256978       1.45082836      -0.78902814
H       -1.35566893       1.32412298       0.69888902
H       -0.33559656      -0.96363239       1.13488873
H        1.39011033      -0.26267174      -1.34757200
H        1.64640928      -1.65695832      -0.19015947
H        1.78922873      -0.08396882       1.56019998
12
Frame=3 idx=003849 GeodesicLength=0.16891323039962053 rxn_smarts="[N:1]#[C:2][C:3]([C@@:4]1([H:9])[C:5]([H:10])([H:11])[N:6]1[H:12])([H:7])[H:8]>>[N+:1](#[C-:2])[C:3]([C@@:4]1([H:9])[C:5]([H:10])([H:11])[N:6]1[H:12])([H:7])[H:8]"
N       -2.66758704       0.25321282      -0.51461917
C       -1.89517981      -0.21090226      -1.26838425
C       -0.90841565       0.73313992      -0.10370668
C        0.08391782      -0.25220993       0.43182767
C        1.26738946      -0.65213454      -0.34688589
N        1.38816556       0.32687680       0.73030405
H       -0.44549192       1.44008763      -0.78825344
H       -1.34088808       1.32195240       0.70412041
H       -0.32882529      -0.97288435       1.13027110
H        1.40001087      -0.25210585      -1.34540581
H        1.65968593      -1.65057285      -0.19346674
H        1.78721815      -0.08445979       1.56419875
12
Frame=4 idx=003849 GeodesicLength=0.22340582552943855 rxn_smarts="[N:1]#[C:2][C:3]([C@@:4]1([H:9])[C:5]([H:10])([H:11])[N:6]1[H:12])([H:7])[H:8]>>[N+:1](#[C-:2])[C:3]([C@@:4]1([H:9])[C:5]([H:10])([H:11])[N:6]1[H:12])([H:7])[H:8]"
N       -2.68184765       0.31652776      -0.55816234
C       -1.91835499      -0.25783902      -1.23679544
C       -0.91460292       0.72235141      -0.10249722
C        0.08725191      -0.25642691       0.43073909
C        1.27417253      -0.64777550      -0.34745636
N        1.38791165       0.32817241       0.73314784
H       -0.44825120       1.43144986      -0.78338282
H       -1.33072929       1.31635036       0.71105931
H       -0.32064868      -0.98041354       1.12877653
H        1.40609753      -0.24342615      -1.34434612
H        1.67080244      -1.64494115      -0.19706834
H        1.78819868      -0.08402952       1.56598586
12
Frame=5 idx=003849 GeodesicLength=0.276524985685379 rxn_smarts="[N:1]#[C:2][C:3]([C@@:4]1([H:9])[C:5]([H:10])([H:11])[N:6]1[H:12])([H:7])[H:8]>>[N+:1](#[C-:2])[C:3]([C@@:4]1([H:9])[C:5]([H:10])([H:11])[N:6]1[H:12])([H:7])[H:8]"
N       -2.68946614       0.37741958      -0.60727609
C       -1.94591673      -0.30250337      -1.20025525
C       -0.92058455       0.71195285      -0.10101307
C        0.09044452      -0.26055918       0.42984259
C        1.28022854      -0.64365093      -0.34837600
N        1.38775703       0.32938063       0.73544428
H       -0.45032711       1.42373144      -0.77734730
H       -1.32271330       1.30950121       0.71792781
H       -0.31204013      -0.98749105       1.12815009
H        1.41155399      -0.23502083      -1.34362175
H        1.68157149      -1.63933129      -0.20072678
H        1.78949240      -0.08342905       1.56725148
12
Frame=6 idx=003849 GeodesicLength=0.3288281188128147 rxn_smarts="[N:1]#[C:2][C:3]([C@@:4]1([H:9])[C:5]([H:10])([H:11])[N:6]1[H:12])([H:7])[H:8]>>[N+:1](#[C-:2])[C:3]([C@@:4]1([H:9])[C:5]([H:10])([H:11])[N:6]1[H:12])([H:7])[H:8]"
N       -2.68887472       0.43481895      -0.66628377
C       -1.97523921      -0.34531330      -1.15871976
C       -0.92652146       0.70241017      -0.09822549
C        0.09373619      -0.26371838       0.43025848
C        1.28472332      -0.63996975      -0.34974610
N        1.38858279       0.33075977       0.73645857
H       -0.45162633       1.41868157      -0.76753689
H       -1.31925266       1.30016438       0.72599489
H       -0.30253173      -0.99285668       1.13001169
H        1.41399940      -0.22797986      -1.34389532
H        1.68994249      -1.63449047      -0.20498695
H        1.79306192      -0.08250641       1.56667066
12
Frame=7 idx=003849 GeodesicLength=0.38065482731867245 rxn_smarts="[N:1]#[C:2][C:3]([C@@:4]1([H:9])[C:5]([H:10])([H:11])[N:6]1[H:12])([H:7])[H:8]>>[N+:1](#[C-:2])[C:3]([C@@:4]1([H:9])[C:5]([H:10])([H:11])[N:6]1[H:12])([H:7])[H:8]"
N       -2.67982233       0.48678108      -0.73267143
C       -2.00840062      -0.38495074      -1.11156947
C       -0.93218040       0.69390442      -0.09491536
C        0.09685725      -0.26625504       0.43129750
C        1.28800643      -0.63657067      -0.35162736
N        1.38991237       0.33203366       0.73675549
H       -0.45193950       1.41592753      -0.75520338
H       -1.31921328       1.28953859       0.73439916
H       -0.29268506      -0.99713511       1.13319963
H        1.41490294      -0.22143245      -1.34479645
H        1.69679896      -1.63009417      -0.20991273
H        1.79776325      -0.08174710       1.56504439
12
Frame=8 idx=003849 GeodesicLength=0.43161623832119106 rxn_smarts="[N:1]#[C:2][C:3]([C@@:4]1([H:9])[C:5]([H:10])([H:11])[N:6]1[H:12])([H:7])[H:8]>>[N+:1](#[C-:2])[C:3]([C@@:4]1([H:9])[C:5]([H:10])([H:11])[N:6]1[H:12])([H:7])[H:8]"
N       -2.66349298       0.53079136      -0.80035619
C       -2.04750783      -0.41883306      -1.05963798
C       -0.93712435       0.68639245      -0.09233051
C        0.09941059      -0.26899251       0.43162890
C        1.29075174      -0.63328183      -0.35393661
N        1.39068254       0.33287245       0.73696386
H       -0.45109929       1.41440659      -0.74279938
H       -1.31989359       1.27935666       0.74171389
H       -0.28345436      -1.00154798       1.13565239
H        1.41650976      -0.21437841      -1.34568503
H        1.70391888      -1.62542553      -0.21485323
H        1.80129889      -0.08136019       1.56363989
12
Frame=9 idx=003849 GeodesicLength=0.48107301483098897 rxn_smarts="[N:1]#[C:2][C:3]([C@@:4]1([H:9])[C:5]([H:10])([H:11])[N:6]1[H:12])([H:7])[H:8]>>[N+:1](#[C-:2])[C:3]([C@@:4]1([H:9])[C:5]([H:10])([H:11])[N:6]1[H:12])([H:7])[H:8]"
N       -2.63748954       0.56270267      -0.87564582
C       -2.08516265      -0.44759694      -1.00528594
C       -0.94164438       0.68126187      -0.08832737
C        0.10187211      -0.26956887       0.43371060
C        1.29107737      -0.63031386      -0.35679847
N        1.39283814       0.33355672       0.73593908
H       -0.44913546       1.41777835      -0.72524723
H       -1.32548790       1.26814217       0.75016337
H       -0.27413759      -1.00308582       1.14061088
H        1.41403932      -0.20869336      -1.34775857
H        1.70580202      -1.62223615      -0.22128088
H        1.80742854      -0.08194680       1.55992035
12
Frame=10 idx=003849 GeodesicLength=0.530508037468193 rxn_smarts="[N:1]#[C:2][C:3]([C@@:4]1([H:9])[C:5]([H:10])([H:11])[N:6]1[H:12])([H:7])[H:8]>>[N+:1](#[C-:2])[C:3]([C@@:4]1([H:9])[C:5]([H:10])([H:11])[N:6]1[H:12])([H:7])[H:8]"
N       -2.60396596       0.58366074      -0.95269138
C       -2.12637846      -0.46944384      -0.94827741
C       -0.94567454       0.67767762      -0.08425982
C        0.10383165      -0.26978355       0.43574204
C        1.29045779      -0.62752002      -0.36012517
N        1.39498507       0.33390340       0.73467650
H       -0.44652356       1.42341234      -0.70619305
H       -1.33235969       1.25775407       0.75833023
H       -0.26556107      -1.00423881       1.14533926
H        1.41092594      -0.20299320      -1.35016924
H        1.70670630      -1.61932804      -0.22823412
H        1.81355654      -0.08310072       1.55586216
12
Frame=11 idx=003849 GeodesicLength=0.5796906008243876 rxn_smarts="[N:1]#[C:2][C:3]([C@@:4]1([H:9])[C:5]([H:10])([H:11])[N:6]1[H:12])([H:7])[H:8]>>[N+:1](#[C-:2])[C:3]([C@@:4]1([H:9])[C:5]([H:10])([H:11])[N:6]1[H:12])([H:7])[H:8]"
N       -2.56409282       0.59297814      -1.02823959
C       -2.17073128      -0.48317158      -0.89033980
C       -0.94910766       0.67542402      -0.08024418
C        0.10516643      -0.26998358       0.43731156
C        1.28913901      -0.62475914      -0.36381523
N        1.39659923       0.33385269       0.73329364
H       -0.44352075       1.43033010      -0.68681317
H       -1.33901661       1.24880080       0.76607077
H       -0.25816284      -1.00553803       1.14903458
H        1.40772871      -0.19703294      -1.35270789
H        1.70726129      -1.61622354      -0.23534756
H        1.81873729      -0.08467694       1.55179688
12
Frame=12 idx=003849 GeodesicLength=0.6302191460554472 rxn_smarts="[N:1]#[C:2][C:3]([C@@:4]1([H:9])[C:5]([H:10])([H:11])[N:6]1[H:12])([H:7])[H:8]>>[N+:1](#[C-:2])[C:3]([C@@:4]1([H:9])[C:5]([H:10])([H:11])[N:6]1[H:12])([H:7])[H:8]"
N       -2.51574043       0.58867278      -1.10589293
C       -2.21703640      -0.48922021      -0.83061112
C       -0.95221139       0.67510184      -0.07533600
C        0.10600407      -0.26938066       0.43938986
C        1.28640768      -0.62176724      -0.36804440
N        1.39841483       0.33334072       0.73186792
H       -0.44044328       1.43951881      -0.66572659
H       -1.34670019       1.24149369       0.77413702
H       -0.25168432      -1.00639560       1.15260324
H        1.40306787      -0.19035832      -1.35558589
H        1.70557412      -1.61337395      -0.24390756
H        1.82434744      -0.08763188       1.54710645
12
Frame=13 idx=003849 GeodesicLength=0.6821679663827348 rxn_smarts="[N:1]#[C:2][C:3]([C@@:4]1([H:9])[C:5]([H:10])([H:11])[N:6]1[H:12])([H:7])[H:8]>>[N+:1](#[C-:2])[C:3]([C@@:4]1([H:9])[C:5]([H:10])([H:11])[N:6]1[H:12])([H:7])[H:8]"
N       -2.46018156       0.56933599      -1.18215169
C       -2.26497578      -0.48647694      -0.77065372
C       -0.95498856       0.67681328      -0.06972377
C        0.10620907      -0.26812512       0.44163339
C        1.28257586      -0.61823414      -0.37268952
N        1.40011125       0.33218353       0.73093227
H       -0.43767532       1.44999951      -0.64478981
H       -1.35395455       1.23696614       0.78229684
H       -0.24657314      -1.00736224       1.15514950
H        1.39783757      -0.18215697      -1.35837656
H        1.70197716      -1.61046516      -0.25399216
H        1.82963799      -0.09247786       1.54236523
12
Frame=14 idx=003849 GeodesicLength=0.7319851243096739 rxn_smarts="[N:1]#[C:2][C:3]([C@@:4]1([H:9])[C:5]([H:10])([H:11])[N:6]1[H:12])([H:7])[H:8]>>[N+:1](#[C-:2])[C:3]([C@@:4]1([H:9])[C:5]([H:10])([H:11])[N:6]1[H:12])([H:7])[H:8]"
N       -2.40428817       0.53730508      -1.24821474
C       -2.30993063      -0.47592196      -0.71723262
C       -0.95730137       0.68046535      -0.06405316
C        0.10593897      -0.26612145       0.44348158
C        1.27851094      -0.61424757      -0.37720268
N        1.40143962       0.33050359       0.73086121
H       -0.43567118       1.46030652      -0.62698850
H       -1.35890348       1.23568031       0.79045232
H       -0.24330217      -1.00835004       1.15570745
H        1.39334259      -0.17298003      -1.36059489
H        1.69672753      -1.60768767      -0.26459709
H        1.83343735      -0.09895212       1.53838112
12
Frame=15 idx=003849 GeodesicLength=0.7861647686039096 rxn_smarts="[N:1]#[C:2][C:3]([C@@:4]1([H:9])[C:5]([H:10])([H:11])[N:6]1[H:12])([H:7])[H:8]>>[N+:1](#[C-:2])[C:3]([C@@:4]1([H:9])[C:5]([H:10])([H:11])[N:6]1[H:12])([H:7])[H:8]"
N       -2.34046746       0.49045421      -1.31160731
C       -2.35728897      -0.45564147      -0.66526501
C       -0.95959415       0.68564335      -0.05714513
C        0.10501370      -0.26388598       0.44560225
C        1.27334716      -0.60952710      -0.38218346
N        1.40239453       0.32838217       0.73120906
H       -0.43440291       1.47095734      -0.60995135
H       -1.36284321       1.23690336       0.79955619
H       -0.24143287      -1.01015080       1.15505195
H        1.38798024      -0.16206180      -1.36280045
H        1.69037978      -1.60426798      -0.27674810
H        1.83691417      -0.10680528       1.53428137
12
Frame=16 idx=003849 GeodesicLength=0.8430054642313877 rxn_smarts="[N:1]#[C:2][C:3]([C@@:4]1([H:9])[C:5]([H:10])([H:11])[N:6]1[H:12])([H:7])[H:8]>>[N+:1](#[C-:2])[C:3]([C@@:4]1([H:9])[C:5]([H:10])([H:11])[N:6]1[H:12])([H:7])[H:8]"
N       -2.27286309       0.43167113      -1.36632901
C       -2.40358247      -0.42659762      -0.62114351
C       -0.96189648       0.69205742      -0.04916922
C        0.10367262      -0.26132006       0.44796816
C        1.26747164      -0.60450367      -0.38726377
N        1.40306691       0.32620852       0.73157392
H       -0.43420088       1.48144919      -0.59450505
H       -1.36567604       1.23975389       0.80994708
H       -0.24095849      -1.01234967       1.15329508
H        1.38174150      -0.15076262      -1.36502747
H        1.68310034      -1.60062165      -0.28930138
H        1.84012444      -0.11498485       1.52995517
