13
Frame=0 idx=007908 GeodesicLength=0.0 rxn_smarts="[C:1]([O:2]/[C:3](=[N:4]\[H:11])[N:5]([C:6](=[O:7])[H:13])[H:12])([H:8])([H:9])[H:10]>>[C:1]([O:2][H:12])([H:8])([H:9])[H:10].[C:3](=[N:4][H:11])=[N:5][C:6](=[O:7])[H:13]"
C       -1.85811995       0.12944623      -0.85444854
O       -0.91200856      -0.72033344      -0.19290252
C        0.57975513      -0.22790216      -0.21808771
N        1.24522564      -0.08515315      -1.25517890
N        0.65203273      -0.08626544       1.09834511
C        1.83369620       0.21699663       1.73656857
O        1.93285733       0.34715787       2.92702326
H       -2.84979777      -0.27191861      -0.65956140
H       -1.65584638       0.09996885      -1.92376451
H       -1.77484444       1.15213750      -0.48267758
H        0.81170911      -0.37535467      -2.11946424
H       -0.70050430      -0.51349886       0.89005841
H        2.69584522       0.33471921       1.05408999
13
Frame=1 idx=007908 GeodesicLength=0.10867030561266347 rxn_smarts="[C:1]([O:2]/[C:3](=[N:4]\[H:11])[N:5]([C:6](=[O:7])[H:13])[H:12])([H:8])([H:9])[H:10]>>[C:1]([O:2][H:12])([H:8])([H:9])[H:10].[C:3](=[N:4][H:11])=[N:5][C:6](=[O:7])[H:13]"
C       -1.87728799       0.11013096      -0.87950804
O       -0.91380099      -0.68968808      -0.18513044
C        0.59085115      -0.16559283      -0.20302327
N        1.24499104      -0.05630095      -1.24944167
N        0.66874410      -0.05114048       1.11458968
C        1.86511225       0.19342537       1.75262989
O        1.96937713       0.32761051       2.94195589
H       -2.86160414      -0.30119088      -0.66789372
H       -1.67551763       0.03651662      -1.94698311
H       -1.81778617       1.15101467      -0.55673157
H        0.78005782      -0.33177520      -2.10295409
H       -0.70704362      -0.47392550       0.91140683
H        2.73390704       0.25091580       1.07108362
13
Frame=2 idx=007908 GeodesicLength=0.21650202680809616 rxn_smarts="[C:1]([O:2]/[C:3](=[N:4]\[H:11])[N:5]([C:6](=[O:7])[H:13])[H:12])([H:8])([H:9])[H:10]>>[C:1]([O:2][H:12])([H:8])([H:9])[H:10].[C:3](=[N:4][H:11])=[N:5][C:6](=[O:7])[H:13]"
C       -1.89510469       0.09087301      -0.90394679
O       -0.91600739      -0.65718666      -0.17780778
C        0.60161573      -0.10023855      -0.18760779
N        1.24432148      -0.02789253      -1.24260366
N        0.68653342      -0.01931787       1.13104914
C        1.89522500       0.16761710       1.76730010
O        2.00635201       0.30935604       2.95487117
H       -2.87216175      -0.32908842      -0.67555117
H       -1.69214464      -0.02757902      -1.96734765
H       -1.85935694       1.14720145      -0.63158684
H        0.74940516      -0.28747296      -2.08496868
H       -0.71402641      -0.43407101       0.93288904
H        2.76534903       0.16779943       1.08531091
13
Frame=3 idx=007908 GeodesicLength=0.3234484367321706 rxn_smarts="[C:1]([O:2]/[C:3](=[N:4]\[H:11])[N:5]([C:6](=[O:7])[H:13])[H:12])([H:8])([H:9])[H:10]>>[C:1]([O:2][H:12])([H:8])([H:9])[H:10].[C:3](=[N:4][H:11])=[N:5][C:6](=[O:7])[H:13]"
C       -1.91139769       0.07157129      -0.92772079
O       -0.91885451      -0.62329247      -0.17077347
C        0.61246966      -0.03403904      -0.17172380
N        1.24271719       0.00105574      -1.23468555
N        0.70469519       0.01128664       1.14731402
C        1.92345290       0.14226050       1.78023460
O        2.04387182       0.28986530       2.96592724
H       -2.88161913      -0.35494235      -0.68226103
H       -1.70566932      -0.09280695      -1.98466171
H       -1.89832439       1.14056448      -0.70747634
H        0.71974241      -0.24255553      -2.06560244
H       -0.72141168      -0.39448013       0.95467479
H        2.79032754       0.08551252       1.09675447
13
Frame=4 idx=007908 GeodesicLength=0.42944141046797507 rxn_smarts="[C:1]([O:2]/[C:3](=[N:4]\[H:11])[N:5]([C:6](=[O:7])[H:13])[H:12])([H:8])([H:9])[H:10]>>[C:1]([O:2][H:12])([H:8])([H:9])[H:10].[C:3](=[N:4][H:11])=[N:5][C:6](=[O:7])[H:13]"
C       -1.92600160       0.05244352      -0.95059333
O       -0.92259698      -0.58882877      -0.16417531
C        0.62389324       0.03023438      -0.15552038
N        1.24005054       0.03078141      -1.22606011
N        0.72287606       0.04123551       1.16306515
C        1.94957218       0.11833647       1.79132400
O        2.08118287       0.27003612       2.97503056
H       -2.89018421      -0.37788655      -0.68801552
H       -1.71608240      -0.15849239      -1.99860049
H       -1.93341971       1.13115538      -0.78356517
H        0.69077013      -0.19659851      -2.04534461
H       -0.72896215      -0.35677479       0.97671530
H        2.80890202       0.00435822       1.10573992
13
Frame=5 idx=007908 GeodesicLength=0.5347071999366542 rxn_smarts="[C:1]([O:2]/[C:3](=[N:4]\[H:11])[N:5]([C:6](=[O:7])[H:13])[H:12])([H:8])([H:9])[H:10]>>[C:1]([O:2][H:12])([H:8])([H:9])[H:10].[C:3](=[N:4][H:11])=[N:5][C:6](=[O:7])[H:13]"
C       -1.93901637       0.03390447      -0.97269465
O       -0.92764445      -0.55380783      -0.15792029
C        0.63607214       0.09123353      -0.13889552
N        1.23615755       0.06139202      -1.21701420
N        0.74120933       0.06928896       1.17846925
C        1.97400185       0.09559685       1.80075450
O        2.11807704       0.24773034       2.98267106
H       -2.89828301      -0.39703311      -0.69319244
H       -1.72369435      -0.22428917      -2.00915682
H       -1.96422528       1.11945155      -0.86006964
H        0.66232934      -0.15183044      -2.02402122
H       -0.73689727      -0.32101196       0.99911579
H        2.82191347      -0.07062520       1.11195418
13
Frame=6 idx=007908 GeodesicLength=0.6393995052186751 rxn_smarts="[C:1]([O:2]/[C:3](=[N:4]\[H:11])[N:5]([C:6](=[O:7])[H:13])[H:12])([H:8])([H:9])[H:10]>>[C:1]([O:2][H:12])([H:8])([H:9])[H:10].[C:3](=[N:4][H:11])=[N:5][C:6](=[O:7])[H:13]"
C       -1.95072059       0.01593471      -0.99403973
O       -0.93403743      -0.51832311      -0.15209967
C        0.64908886       0.14892975      -0.12202409
N        1.23137580       0.09239611      -1.20777588
N        0.75964104       0.09595627       1.19346844
C        1.99695137       0.07394245       1.80871344
O        2.15432745       0.22493075       2.98879550
H       -2.90616287      -0.41297109      -0.69837434
H       -1.72860132      -0.28941800      -2.01634599
H       -1.99128114       1.10539432      -0.93626722
H        0.63413424      -0.10739493      -2.00198483
H       -0.74499826      -0.28786664       1.02186989
H        2.83028287      -0.14151057       1.11606447
13
Frame=7 idx=007908 GeodesicLength=0.7436638123776279 rxn_smarts="[C:1]([O:2]/[C:3](=[N:4]\[H:11])[N:5]([C:6](=[O:7])[H:13])[H:12])([H:8])([H:9])[H:10]>>[C:1]([O:2][H:12])([H:8])([H:9])[H:10].[C:3](=[N:4][H:11])=[N:5][C:6](=[O:7])[H:13]"
C       -1.96134428      -0.00156884      -1.01481947
O       -0.94185945      -0.48176812      -0.14651791
C        0.66289937       0.20409956      -0.10485658
N        1.22573710       0.12409722      -1.19838039
N        0.77829146       0.12144671       1.20818237
C        2.01880661       0.05308999       1.81532575
O        2.19004157       0.20051899       2.99364636
H       -2.91397260      -0.42620677      -0.70394724
H       -1.73093055      -0.35408316      -2.02017560
H       -2.01528918       1.08892698      -1.01262032
H        0.60612282      -0.06407578      -1.97904017
H       -0.75335248      -0.25649695       1.04511783
H        2.83484962      -0.20797983       1.11808538
13
Frame=8 idx=007908 GeodesicLength=0.8475637826875034 rxn_smarts="[C:1]([O:2]/[C:3](=[N:4]\[H:11])[N:5]([C:6](=[O:7])[H:13])[H:12])([H:8])([H:9])[H:10]>>[C:1]([O:2][H:12])([H:8])([H:9])[H:10].[C:3](=[N:4][H:11])=[N:5][C:6](=[O:7])[H:13]"
C       -1.97106230      -0.01858159      -1.03508837
O       -0.95119732      -0.44389377      -0.14123254
C        0.67754651       0.25691892      -0.08745713
N        1.21943187       0.15590040      -1.18884327
N        0.79718403       0.14572161       1.22260897
C        2.03968505       0.03264531       1.82075371
O        2.22521029       0.17543900       2.99719999
H       -2.92183121      -0.43711164      -0.71024489
H       -1.73080578      -0.41790013      -2.02064650
H       -2.03662059       1.07004220      -1.08893371
H        0.57812870      -0.02139317      -1.95528499
H       -0.76189334      -0.22718645       1.06883816
H        2.83622409      -0.27060069       1.11833056
13
Frame=9 idx=007908 GeodesicLength=0.9511613955410282 rxn_smarts="[C:1]([O:2]/[C:3](=[N:4]\[H:11])[N:5]([C:6](=[O:7])[H:13])[H:12])([H:8])([H:9])[H:10]>>[C:1]([O:2][H:12])([H:8])([H:9])[H:10].[C:3](=[N:4][H:11])=[N:5][C:6](=[O:7])[H:13]"
C       -1.98002483      -0.03512064      -1.05493584
O       -0.96218990      -0.40411386      -0.13618206
C        0.69308455       0.30768856      -0.06984594
N        1.21254527       0.18756474      -1.17915318
N        0.81637576       0.16878206       1.23676293
C        2.05968761       0.01215202       1.82513181
O        2.25987601       0.14958189       2.99953149
H       -2.92979830      -0.44613328      -0.71754651
H       -1.72825397      -0.48075401      -2.01770623
H       -2.05581141       1.04866399      -1.16532333
H        0.55010447       0.02054996      -1.93067119
H       -0.77067879      -0.19957784       1.09305260
H        2.83508354      -0.32928358       1.11688545
13
Frame=10 idx=007908 GeodesicLength=1.0544942679739933 rxn_smarts="[C:1]([O:2]/[C:3](=[N:4]\[H:11])[N:5]([C:6](=[O:7])[H:13])[H:12])([H:8])([H:9])[H:10]>>[C:1]([O:2][H:12])([H:8])([H:9])[H:10].[C:3](=[N:4][H:11])=[N:5][C:6](=[O:7])[H:13]"
C       -1.98833839      -0.05119765      -1.07438240
O       -0.97494394      -0.36195167      -0.13143245
C        0.70958941       0.35657361      -0.05210028
N        1.20517521       0.21874973      -1.16932073
N        0.83586511       0.19071131       1.25061363
C        2.07883743      -0.00845201       1.82855324
O        2.29411361       0.12359013       3.00061980
H       -2.93792311      -0.45353253      -0.72593357
H       -1.72336412      -0.54260589      -2.01118680
H       -2.07305705       1.02467846      -1.24190624
H        0.52194944       0.06245780      -1.90527868
H       -0.77960433      -0.17411124       1.11769505
H        2.83170073      -0.38491005       1.11405943
13
Frame=11 idx=007908 GeodesicLength=1.1575952989080611 rxn_smarts="[C:1]([O:2]/[C:3](=[N:4]\[H:11])[N:5]([C:6](=[O:7])[H:13])[H:12])([H:8])([H:9])[H:10]>>[C:1]([O:2][H:12])([H:8])([H:9])[H:10].[C:3](=[N:4][H:11])=[N:5][C:6](=[O:7])[H:13]"
C       -1.99606095      -0.06687155      -1.09344724
O       -0.98962359      -0.31651265      -0.12696491
C        0.72716241       0.40386587      -0.03426894
N        1.19735825       0.24942295      -1.15934918
N        0.85568046       0.21162374       1.26413756
C        2.09713780      -0.02942356       1.83108182
O        2.32799396       0.09736362       3.00048013
H       -2.94616474      -0.45969351      -0.73545705
H       -1.71604183      -0.60359152      -2.00074925
H       -2.08873685       0.99779812      -1.31903364
H        0.49363198       0.10462998      -1.87908032
H       -0.78866851      -0.15068421       1.14268965
H        2.82633161      -0.43792728       1.10996137
13
Frame=12 idx=007908 GeodesicLength=1.2604823783673487 rxn_smarts="[C:1]([O:2]/[C:3](=[N:4]\[H:11])[N:5]([C:6](=[O:7])[H:13])[H:12])([H:8])([H:9])[H:10]>>[C:1]([O:2][H:12])([H:8])([H:9])[H:10].[C:3](=[N:4][H:11])=[N:5][C:6](=[O:7])[H:13]"
C       -2.00319753      -0.08215914      -1.11208866
O       -1.00644440      -0.26671991      -0.12283700
C        0.74589393       0.44982172      -0.01641025
N        1.18909991       0.27965901      -1.14924900
N        0.87579906       0.23158910       1.27728999
C        2.11452926      -0.05091658       1.83274577
O        2.36157692       0.07098802       2.99906948
H       -2.95447897      -0.46476119      -0.74602705
H       -1.70617245      -0.66395317      -1.98577742
H       -2.10295924       0.96761144      -1.39720940
H        0.46511678       0.14755992      -1.85206646
H       -0.79779163      -0.12978663       1.16783805
H        2.81902836      -0.48893258       1.10472194
13
Frame=13 idx=007908 GeodesicLength=1.3631450097571973 rxn_smarts="[C:1]([O:2]/[C:3](=[N:4]\[H:11])[N:5]([C:6](=[O:7])[H:13])[H:12])([H:8])([H:9])[H:10]>>[C:1]([O:2][H:12])([H:8])([H:9])[H:10].[C:3](=[N:4][H:11])=[N:5][C:6](=[O:7])[H:13]"
C       -2.00968187      -0.09702635      -1.13017939
O       -1.02570655      -0.21117571      -0.11915878
C        0.76587332       0.49463972       0.00140374
N        1.18038506       0.30957973      -1.13904256
N        0.89612953       0.25059902       1.28999704
C        2.13082259      -0.07323390       1.83356509
O        2.39489249       0.04457220       2.99629252
H       -2.96278032      -0.46874747      -0.75747843
H       -1.69351955      -0.72391770      -1.96530371
H       -2.11568864       0.93352515      -1.47698264
H        0.43639360       0.19172351      -1.82423183
H       -0.80691419      -0.11222684       1.19271750
H        2.80979453      -0.53831139       1.09840145
13
Frame=14 idx=007908 GeodesicLength=1.4655749706398344 rxn_smarts="[C:1]([O:2]/[C:3](=[N:4]\[H:11])[N:5]([C:6](=[O:7])[H:13])[H:12])([H:8])([H:9])[H:10]>>[C:1]([O:2][H:12])([H:8])([H:9])[H:10].[C:3](=[N:4][H:11])=[N:5][C:6](=[O:7])[H:13]"
C       -2.01534817      -0.11138795      -1.14741648
O       -1.04779017      -0.14786282      -0.11611826
C        0.78718299       0.53865432       0.01906535
N        1.17117229       0.33963398      -1.12880423
N        0.91651517       0.26859886       1.30210333
C        2.14580860      -0.09645094       1.83347031
O        2.42762699       0.01756320       2.99212002
H       -2.97095692      -0.47131100      -0.76938576
H       -1.67780586      -0.78394048      -1.93763137
H       -2.12661848       0.89452396      -1.55924993
H        0.40749374       0.23737849      -1.79557335
H       -0.81594261      -0.09930885       1.21648778
H        2.79866244      -0.58609077       1.09093259
13
Frame=15 idx=007908 GeodesicLength=1.5677215919923964 rxn_smarts="[C:1]([O:2]/[C:3](=[N:4]\[H:11])[N:5]([C:6](=[O:7])[H:13])[H:12])([H:8])([H:9])[H:10]>>[C:1]([O:2][H:12])([H:8])([H:9])[H:10].[C:3](=[N:4][H:11])=[N:5][C:6](=[O:7])[H:13]"
C       -2.01982947      -0.12514798      -1.16311802
O       -1.07285437      -0.07523677      -0.11417990
C        0.80994297       0.58202833       0.03624828
N        1.16152436       0.37011674      -1.11879358
N        0.93662598       0.28553140       1.31325838
C        2.15900156      -0.12070611       1.83238261
O        2.45898608      -0.01056090       2.98655675
H       -2.97869779      -0.47220199      -0.78109282
H       -1.65876762      -0.84380504      -1.90078677
H       -2.13516129       0.84939210      -1.64389639
H        0.37856160       0.28468948      -1.76630207
H       -0.82502512      -0.09208035       1.23747485
H        2.78569311      -0.63201891       1.08224866
13
Frame=16 idx=007908 GeodesicLength=1.6695552122746808 rxn_smarts="[C:1]([O:2]/[C:3](=[N:4]\[H:11])[N:5]([C:6](=[O:7])[H:13])[H:12])([H:8])([H:9])[H:10]>>[C:1]([O:2][H:12])([H:8])([H:9])[H:10].[C:3](=[N:4][H:11])=[N:5][C:6](=[O:7])[H:13]"
C       -2.02222876      -0.13890659      -1.17609872
O       -1.10005970       0.00580246      -0.11413085
C        0.83427527       0.62549937       0.05233369
N        1.15166226       0.40223733      -1.10956568
N        0.95613592       0.30233960       1.32289666
C        2.16963991      -0.14603976       1.82986206
O        2.48745224      -0.04164139       2.97951288
H       -2.98490418      -0.47264510      -0.79155950
H       -1.63586864      -0.90255772      -1.85344649
H       -2.14066848       0.79657212      -1.72868736
H        0.34993864       0.33398345      -1.73688779
H       -0.83505538      -0.08748636       1.25373717
H        2.76968089      -0.67715740       1.07203394
