15
Frame=0 idx=003515 GeodesicLength=0.0 rxn_smarts="[C:1]([O:2]/[C:3](=[N:4]/[C:5]([H:10])([H:11])[H:12])[C:6]([H:13])([H:14])[H:15])([H:7])([H:8])[H:9]>>[C:1]([H:7])([H:8])([H:9])[H:12].[O:2]=[C:3]([N:4]=[C:5]([H:10])[H:11])[C:6]([H:13])([H:14])[H:15]"
C        1.96136721      -0.45354907      -0.10873685
O        0.01776419      -0.73196967      -0.77682039
C       -0.91932994      -0.20021896      -0.09536072
N       -0.83916456       1.02045056       0.37791415
C        0.31375953       1.66891334      -0.00582082
C       -2.11149441      -1.04147068       0.25929449
H        2.32061347      -0.27372454      -1.11207207
H        1.73151917      -1.48417526       0.10908116
H        2.55227188       0.01393236       0.67725257
H        0.42825638       1.85538315      -1.08005774
H        0.56150606       2.53697246       0.60416332
H        1.18650811       0.86314190       0.11847192
H       -2.84430429      -0.43928992       0.79259175
H       -2.55802519      -1.45469885      -0.64600354
H       -1.80124760      -1.87969679       0.88610281
15
Frame=1 idx=003515 GeodesicLength=0.10284071275133569 rxn_smarts="[C:1]([O:2]/[C:3](=[N:4]/[C:5]([H:10])([H:11])[H:12])[C:6]([H:13])([H:14])[H:15])([H:7])([H:8])[H:9]>>[C:1]([H:7])([H:8])([H:9])[H:12].[O:2]=[C:3]([N:4]=[C:5]([H:10])[H:11])[C:6]([H:13])([H:14])[H:15]"
C        1.98479459      -0.45004285      -0.13023914
O        0.02259901      -0.76850501      -0.73431867
C       -0.90789667      -0.22501095      -0.05419545
N       -0.81121304       0.98873732       0.43588201
C        0.30496855       1.66514491       0.00362756
C       -2.13771216      -1.02883436       0.25413296
H        2.32293165      -0.21855433      -1.13097937
H        1.81257716      -1.50193169       0.03847351
H        2.58149180      -0.01746988       0.67154108
H        0.40007216       1.82710256      -1.07629159
H        0.52435414       2.56389374       0.57961680
H        1.21693388       0.87733505       0.14985662
H       -2.89739058      -0.39354398       0.70553183
H       -2.53149275      -1.48164702      -0.65634523
H       -1.88501774      -1.83667352       0.94370706
15
Frame=2 idx=003515 GeodesicLength=0.20439967233676107 rxn_smarts="[C:1]([O:2]/[C:3](=[N:4]/[C:5]([H:10])([H:11])[H:12])[C:6]([H:13])([H:14])[H:15])([H:7])([H:8])[H:9]>>[C:1]([H:7])([H:8])([H:9])[H:12].[O:2]=[C:3]([N:4]=[C:5]([H:10])[H:11])[C:6]([H:13])([H:14])[H:15]"
C        2.00684501      -0.44625024      -0.15149851
O        0.02895734      -0.80820502      -0.68904971
C       -0.89612978      -0.25157948      -0.01317452
N       -0.78220648       0.95541172       0.49217391
C        0.29499102       1.65917286       0.01440628
C       -2.16181612      -1.01467036       0.24840492
H        2.32253683      -0.16446229      -1.14735463
H        1.89192984      -1.51405348      -0.03561643
H        2.61105834      -0.04892883       0.66312579
H        0.37186038       1.79735250      -1.07012842
H        0.48129499       2.58599363       0.55715540
H        1.24759693       0.89192971       0.18107207
H       -2.93911856      -0.34539891       0.61275747
H       -2.50514386      -1.51022619      -0.65987768
H       -1.97265587      -1.78608563       0.99760409
15
Frame=3 idx=003515 GeodesicLength=0.3048630609865256 rxn_smarts="[C:1]([O:2]/[C:3](=[N:4]/[C:5]([H:10])([H:11])[H:12])[C:6]([H:13])([H:14])[H:15])([H:7])([H:8])[H:9]>>[C:1]([H:7])([H:8])([H:9])[H:12].[O:2]=[C:3]([N:4]=[C:5]([H:10])[H:11])[C:6]([H:13])([H:14])[H:15]"
C        2.02738920      -0.44226338      -0.17246352
O        0.03688488      -0.85111326      -0.64042584
C       -0.88392324      -0.27993367       0.02825234
N       -0.75229700       0.92072545       0.54686959
C        0.28385254       1.65111017       0.02640284
C       -2.18356080      -0.99905387       0.24193712
H        2.31917088      -0.11198866      -1.16141325
H        1.96860884      -1.52026409      -0.11207974
H        2.64096429      -0.07998669       0.65177725
H        0.34348863       1.76602333      -1.06183546
H        0.43266285       2.60315953       0.53666434
H        1.27838349       0.90699600       0.21182329
H       -2.96855428      -0.29596948       0.51532749
H       -2.47970487      -1.53953514      -0.65693090
H       -2.06336542      -1.72790625       1.04609445
15
Frame=4 idx=003515 GeodesicLength=0.4043287951655958 rxn_smarts="[C:1]([O:2]/[C:3](=[N:4]/[C:5]([H:10])([H:11])[H:12])[C:6]([H:13])([H:14])[H:15])([H:7])([H:8])[H:9]>>[C:1]([H:7])([H:8])([H:9])[H:12].[O:2]=[C:3]([N:4]=[C:5]([H:10])[H:11])[C:6]([H:13])([H:14])[H:15]"
C        2.04582646      -0.43841230      -0.19304933
O        0.04608200      -0.89648910      -0.58898301
C       -0.87155725      -0.30940663       0.06949490
N       -0.72205174       0.88550636       0.59919955
C        0.27176587       1.64141895       0.03948182
C       -2.20234102      -0.98229112       0.23481668
H        2.31282754      -0.06146628      -1.17302475
H        2.04083883      -1.52081816      -0.19037714
H        2.67033670      -0.11110977       0.63791441
H        0.31562215       1.73373008      -1.05160754
H        0.37908724       2.61539453       0.51842117
H        1.30898701       0.92247794       0.24211615
H       -2.98518992      -0.24701447       0.41427886
H       -2.45544611      -1.56986115      -0.64714349
H       -2.15478777      -1.66165890       1.08846171
15
Frame=5 idx=003515 GeodesicLength=0.5030681145912758 rxn_smarts="[C:1]([O:2]/[C:3](=[N:4]/[C:5]([H:10])([H:11])[H:12])[C:6]([H:13])([H:14])[H:15])([H:7])([H:8])[H:9]>>[C:1]([H:7])([H:8])([H:9])[H:12].[O:2]=[C:3]([N:4]=[C:5]([H:10])[H:11])[C:6]([H:13])([H:14])[H:15]"
C        2.06202424      -0.43476586      -0.21322557
O        0.05654201      -0.94413666      -0.53406971
C       -0.85883839      -0.33999560       0.11145168
N       -0.69155390       0.85010038       0.64949937
C        0.25872644       1.63032161       0.05342361
C       -2.21790204      -0.96449911       0.22691916
H        2.30337201      -0.01327450      -1.18243016
H        2.10765272      -1.51593085      -0.26947114
H        2.69907855      -0.14195152       0.62140896
H        0.28791829       1.70035608      -1.03980427
H        0.32107757       2.62279716       0.50202169
H        1.33932325       0.93852571       0.27161244
H       -2.98866149      -0.19967562       0.31099049
H       -2.43282010      -1.59983380      -0.63139927
H       -2.24593917      -1.58803741       1.12307272
15
Frame=6 idx=003515 GeodesicLength=0.6012575171205229 rxn_smarts="[C:1]([O:2]/[C:3](=[N:4]/[C:5]([H:10])([H:11])[H:12])[C:6]([H:13])([H:14])[H:15])([H:7])([H:8])[H:9]>>[C:1]([H:7])([H:8])([H:9])[H:12].[O:2]=[C:3]([N:4]=[C:5]([H:10])[H:11])[C:6]([H:13])([H:14])[H:15]"
C        2.07527117      -0.43173612      -0.23283271
O        0.06765542      -0.99267374      -0.47725109
C       -0.84638591      -0.37044181       0.15242044
N       -0.66160796       0.81562277       0.69659889
C        0.24515616       1.61862815       0.06809248
C       -2.22977526      -0.94630149       0.21848095
H        2.29126613       0.03256687      -1.18917915
H        2.16719844      -1.50634633      -0.34913732
H        2.72592991      -0.17363723       0.60310110
H        0.26159504       1.66722566      -1.02659580
H        0.25969584       2.62575570       0.48788905
H        1.36910240       0.95497212       0.30066848
H       -2.97964834      -0.15633812       0.20652691
H       -2.41197027      -1.63054506      -0.60891191
H       -2.33348277      -1.50675138       1.15012967
15
Frame=7 idx=003515 GeodesicLength=0.6993680744283918 rxn_smarts="[C:1]([O:2]/[C:3](=[N:4]/[C:5]([H:10])([H:11])[H:12])[C:6]([H:13])([H:14])[H:15])([H:7])([H:8])[H:9]>>[C:1]([H:7])([H:8])([H:9])[H:12].[O:2]=[C:3]([N:4]=[C:5]([H:10])[H:11])[C:6]([H:13])([H:14])[H:15]"
C        2.08553686      -0.42933547      -0.25219919
O        0.07941258      -1.04188305      -0.41764269
C       -0.83393277      -0.40079663       0.19369460
N       -0.63216283       0.78228933       0.74136154
C        0.23114046       1.60654855       0.08367083
C       -2.23792518      -0.92774263       0.20940640
H        2.27636498       0.07606450      -1.19378541
H        2.21914659      -1.49246819      -0.42916946
H        2.75102834      -0.20604557       0.58241292
H        0.23618591       1.63432709      -1.01192520
H        0.19533233       2.62453167       0.47582991
H        1.39843908       0.97182039       0.32918888
H       -2.95853604      -0.11799393       0.10028312
H       -2.39253599      -1.66148394      -0.57997371
H       -2.41749431      -1.41783212       1.16884747
15
Frame=8 idx=003515 GeodesicLength=0.7977009981371495 rxn_smarts="[C:1]([O:2]/[C:3](=[N:4]/[C:5]([H:10])([H:11])[H:12])[C:6]([H:13])([H:14])[H:15])([H:7])([H:8])[H:9]>>[C:1]([H:7])([H:8])([H:9])[H:12].[O:2]=[C:3]([N:4]=[C:5]([H:10])[H:11])[C:6]([H:13])([H:14])[H:15]"
C        2.09266554      -0.42767239      -0.27127771
O        0.09164989      -1.09116818      -0.35528078
C       -0.82159048      -0.43058943       0.23524527
N       -0.60338463       0.75058075       0.78391307
C        0.21676112       1.59455197       0.10001357
C       -2.24228568      -0.90909199       0.19964053
H        2.25881771       0.11698235      -1.19637265
H        2.26278535      -1.47498884      -0.50863910
H        2.77419114      -0.23917869       0.55932757
H        0.21168330       1.60204830      -0.99602817
H        0.12866435       2.61951385       0.46567983
H        1.42735571       0.98913358       0.35707365
H       -2.92598766      -0.08601131      -0.00626502
H       -2.37488425      -1.69169192      -0.54526939
H       -2.49644142      -1.32241806       1.17823933
15
Frame=9 idx=003515 GeodesicLength=0.8958875398801646 rxn_smarts="[C:1]([O:2]/[C:3](=[N:4]/[C:5]([H:10])([H:11])[H:12])[C:6]([H:13])([H:14])[H:15])([H:7])([H:8])[H:9]>>[C:1]([H:7])([H:8])([H:9])[H:12].[O:2]=[C:3]([N:4]=[C:5]([H:10])[H:11])[C:6]([H:13])([H:14])[H:15]"
C        2.09639288      -0.42687750      -0.28941986
O        0.10368518      -1.13917364      -0.29246195
C       -0.80987418      -0.45876928       0.27477849
N       -0.57582044       0.72108142       0.82294584
C        0.20223914       1.58338807       0.11639895
C       -2.24294735      -0.89118303       0.18939623
H        2.23974097       0.15543333      -1.19610042
H        2.29706071      -1.45471533      -0.58629279
H        2.79437319      -0.27367489       0.53508085
H        0.18908253       1.57162754      -0.97966162
H        0.06112413       2.61125871       0.45728815
H        1.45564949       1.00691753       0.38447566
H       -2.88380522      -0.06198191      -0.10953448
H       -2.36016990      -1.72055144      -0.50541202
H       -2.56673113      -1.22277958       1.17851898
15
Frame=10 idx=003515 GeodesicLength=0.9945134206661408 rxn_smarts="[C:1]([O:2]/[C:3](=[N:4]/[C:5]([H:10])([H:11])[H:12])[C:6]([H:13])([H:14])[H:15])([H:7])([H:8])[H:9]>>[C:1]([H:7])([H:8])([H:9])[H:12].[O:2]=[C:3]([N:4]=[C:5]([H:10])[H:11])[C:6]([H:13])([H:14])[H:15]"
C        2.09686989      -0.42697487      -0.30717340
O        0.11566962      -1.18590163      -0.22785961
C       -0.79845922      -0.48548339       0.31404413
N       -0.54923823       0.69393675       0.85972329
C        0.18763432       1.57319153       0.13327750
C       -2.24008140      -0.87379266       0.17863861
H        2.21888527       0.19145478      -1.19375715
H        2.32263316      -1.43217528      -0.66240642
H        2.81202355      -0.30935599       0.50875404
H        0.16772611       1.54286210      -0.96248855
H       -0.00737892       2.60014527       0.45050573
H        1.48369281       1.02510098       0.41133849
H       -2.83292186      -0.04624809      -0.21084971
H       -2.34749941      -1.74742954      -0.46095343
H       -2.62955570      -1.11932996       1.16920649
15
Frame=11 idx=003515 GeodesicLength=1.093643829684647 rxn_smarts="[C:1]([O:2]/[C:3](=[N:4]/[C:5]([H:10])([H:11])[H:12])[C:6]([H:13])([H:14])[H:15])([H:7])([H:8])[H:9]>>[C:1]([H:7])([H:8])([H:9])[H:12].[O:2]=[C:3]([N:4]=[C:5]([H:10])[H:11])[C:6]([H:13])([H:14])[H:15]"
C        2.09418345      -0.42790967      -0.32441730
O        0.12735345      -1.23084144      -0.16232097
C       -0.78740719      -0.51057359       0.35257713
N       -0.52367440       0.66911141       0.89422191
C        0.17292198       1.56421226       0.15051873
C       -2.23391622      -0.85724423       0.16738038
H        2.19681845       0.22532875      -1.18918127
H        2.33952009      -1.40781289      -0.73665529
H        2.82694668      -0.34634325       0.48056938
H        0.14764943       1.51614418      -0.94469539
H       -0.07634200       2.58645073       0.44529778
H        1.51155558       1.04367743       0.43773994
H       -2.77431062      -0.03925276      -0.30928875
H       -2.33731877      -1.77200014      -0.41220340
H       -2.68397992      -1.01294679       1.15045711
15
Frame=12 idx=003515 GeodesicLength=1.1933506429020437 rxn_smarts="[C:1]([O:2]/[C:3](=[N:4]/[C:5]([H:10])([H:11])[H:12])[C:6]([H:13])([H:14])[H:15])([H:7])([H:8])[H:9]>>[C:1]([H:7])([H:8])([H:9])[H:12].[O:2]=[C:3]([N:4]=[C:5]([H:10])[H:11])[C:6]([H:13])([H:14])[H:15]"
C        2.08836493      -0.42970343      -0.34122907
O        0.13867352      -1.27372432      -0.09563633
C       -0.77668483      -0.53387616       0.39069782
N       -0.49906827       0.64674388       0.92679040
C        0.15812187       1.55665717       0.16813590
C       -2.22459557      -0.84153571       0.15563187
H        2.17360884       0.25707050      -1.18257921
H        2.34809590      -1.38206683      -0.80881505
H        2.83906865      -0.38461025       0.45034956
H        0.12869954       1.49157532      -0.92631459
H       -0.14553174       2.57047199       0.44146342
H        1.53942271       1.06258972       0.46365119
H       -2.70902186      -0.04114110      -0.40419331
H       -2.32940176      -1.79340691      -0.36003672
H       -2.72975192      -0.90504386       1.12208411
15
Frame=13 idx=003515 GeodesicLength=1.2936683240989268 rxn_smarts="[C:1]([O:2]/[C:3](=[N:4]/[C:5]([H:10])([H:11])[H:12])[C:6]([H:13])([H:14])[H:15])([H:7])([H:8])[H:9]>>[C:1]([H:7])([H:8])([H:9])[H:12].[O:2]=[C:3]([N:4]=[C:5]([H:10])[H:11])[C:6]([H:13])([H:14])[H:15]"
C        2.07961674      -0.43223299      -0.35751087
O        0.14940575      -1.31422723      -0.02885980
C       -0.76635215      -0.55535981       0.42785042
N       -0.47545139       0.62666605       0.95731290
C        0.14314931       1.55063844       0.18599859
C       -2.21247351      -0.82692573       0.14344991
H        2.14986776       0.28705346      -1.17374390
H        2.34883998      -1.35510052      -0.87874353
H        2.84823613      -0.42426474       0.41834249
H        0.11087691       1.46946107      -0.90753412
H       -0.21440442       2.55242838       0.43913508
H        1.56737847       1.08178078       0.48925647
H       -2.63821717      -0.05222010      -0.49501910
H       -2.32424186      -1.81151177      -0.30446918
H       -2.76623053      -0.79618528       1.08453464
15
Frame=14 idx=003515 GeodesicLength=1.394691665377487 rxn_smarts="[C:1]([O:2]/[C:3](=[N:4]/[C:5]([H:10])([H:11])[H:12])[C:6]([H:13])([H:14])[H:15])([H:7])([H:8])[H:9]>>[C:1]([H:7])([H:8])([H:9])[H:12].[O:2]=[C:3]([N:4]=[C:5]([H:10])[H:11])[C:6]([H:13])([H:14])[H:15]"
C        2.06800300      -0.43552633      -0.37333799
O        0.15955866      -1.35228090       0.03846008
C       -0.75635614      -0.57498361       0.46451995
N       -0.45269970       0.60894120       0.98617815
C        0.12796483       1.54623395       0.20410441
C       -2.19765928      -0.81328312       0.13083137
H        2.12554325       0.31522277      -1.16288765
H        2.34231286      -1.32715558      -0.94636003
H        2.85438267      -0.46520848       0.38437157
H        0.09394044       1.44966003      -0.88838301
H       -0.28297250       2.53251245       0.43798865
H        1.59563245       1.10120245       0.51447332
H       -2.56272316      -0.07203123      -0.58099738
H       -2.32151015      -1.82532998      -0.24674870
H       -2.79341725      -0.68797362       1.03778725
15
Frame=15 idx=003515 GeodesicLength=1.4965825579343681 rxn_smarts="[C:1]([O:2]/[C:3](=[N:4]/[C:5]([H:10])([H:11])[H:12])[C:6]([H:13])([H:14])[H:15])([H:7])([H:8])[H:9]>>[C:1]([H:7])([H:8])([H:9])[H:12].[O:2]=[C:3]([N:4]=[C:5]([H:10])[H:11])[C:6]([H:13])([H:14])[H:15]"
C        2.05371026      -0.43944660      -0.38869435
O        0.16904082      -1.38783510       0.10575014
C       -0.74669365      -0.59289404       0.50055736
N       -0.43073549       0.59331281       1.01344869
C        0.11239790       1.54338396       0.22238494
C       -2.18039204      -0.80069676       0.11778418
H        2.10098114       0.34188276      -1.14989333
H        2.32908792      -1.29815752      -1.01170760
H        2.85740231      -0.50745741       0.34851666
H        0.07765938       1.43216744      -0.86896301
H       -0.35098439       2.51080400       0.43812096
H        1.62427980       1.12081185       0.53942483
H       -2.48323788      -0.10053397      -0.66186603
H       -2.32153899      -1.83459375      -0.18701462
H       -2.81097709      -0.58074767       0.98215117
15
Frame=16 idx=003515 GeodesicLength=1.5995017462102536 rxn_smarts="[C:1]([O:2]/[C:3](=[N:4]/[C:5]([H:10])([H:11])[H:12])[C:6]([H:13])([H:14])[H:15])([H:7])([H:8])[H:9]>>[C:1]([H:7])([H:8])([H:9])[H:12].[O:2]=[C:3]([N:4]=[C:5]([H:10])[H:11])[C:6]([H:13])([H:14])[H:15]"
C        2.03673784      -0.44404422      -0.40364885
O        0.17787121      -1.42085390       0.17351311
C       -0.73735230      -0.60903226       0.53635428
N       -0.40947672       0.57984987       1.03941211
C        0.09639069       1.54212436       0.24084307
C       -2.16068809      -0.78902221       0.10427290
H        2.07599626       0.36691339      -1.13493367
H        2.30964257      -1.26821155      -1.07476043
H        2.85715030      -0.55090891       0.31060793
H        0.06180534       1.41681529      -0.84927523
H       -0.41847249       2.48742536       0.43926870
H        1.65351372       1.14051931       0.56404596
H       -2.40038388      -0.13705021      -0.73694207
H       -2.32388871      -1.83853155      -0.12661044
H       -2.81884575      -0.47599276       0.91785263
