10
Frame=0 idx=000803 GeodesicLength=0.0 rxn_smarts="[O:1]([c:2]1[c:3]([H:8])[n:4][c:5]([H:9])[n:6]1[H:10])[H:7]>>[N:4]#[C:5][H:9].[O:1]([C:2]1=[C:3]([H:8])[N:6]1[H:10])[H:7]"
O       -1.97687483      -1.13989134      -0.07885338
C       -0.74700276      -0.55148265      -0.10108073
C       -0.90414534       0.87830673       0.10716375
N        1.60794523       2.09562181       0.40388670
C        2.13903694       1.08877327       0.27804852
N        0.33600971      -1.18994509      -0.22429595
H       -2.59034234      -0.56904306       0.40263304
H       -0.63183761       1.44653287      -0.79090407
H        2.59828704       0.13225328       0.15254432
H        0.16892397      -2.19112581      -0.14914219
10
Frame=1 idx=000803 GeodesicLength=0.12132945989421871 rxn_smarts="[O:1]([c:2]1[c:3]([H:8])[n:4][c:5]([H:9])[n:6]1[H:10])[H:7]>>[N:4]#[C:5][H:9].[O:1]([C:2]1=[C:3]([H:8])[N:6]1[H:10])[H:7]"
O       -1.97061449      -1.14969856      -0.10859500
C       -0.75685593      -0.53615284      -0.14873152
C       -0.87692623       0.87182469       0.14206665
N        1.60185662       2.05520114       0.38304196
C        2.12412501       1.04417502       0.21837223
N        0.35503007      -1.14853206      -0.19030166
H       -2.60057305      -0.58291012       0.35536235
H       -0.70157497       1.50460387      -0.73485304
H        2.60759069       0.09221604       0.16243077
H        0.21794228      -2.15072717      -0.07879274
10
Frame=2 idx=000803 GeodesicLength=0.2429232469310962 rxn_smarts="[O:1]([c:2]1[c:3]([H:8])[n:4][c:5]([H:9])[n:6]1[H:10])[H:7]>>[N:4]#[C:5][H:9].[O:1]([C:2]1=[C:3]([H:8])[N:6]1[H:10])[H:7]"
O       -1.96160825      -1.15695502      -0.14556468
C       -0.76159095      -0.52182254      -0.18188500
C       -0.84798295       0.86258818       0.17720012
N        1.59712120       2.01780118       0.35583509
C        2.10986530       1.00216115       0.15937483
N        0.37175029      -1.11054787      -0.15545875
H       -2.61151027      -0.59538800       0.29654417
H       -0.76819702       1.55565951      -0.66539469
H        2.61229518       0.05723323       0.16532765
H        0.25985747      -2.11072982      -0.00597873
10
Frame=3 idx=000803 GeodesicLength=0.3647708831779014 rxn_smarts="[O:1]([c:2]1[c:3]([H:8])[n:4][c:5]([H:9])[n:6]1[H:10])[H:7]>>[N:4]#[C:5][H:9].[O:1]([C:2]1=[C:3]([H:8])[N:6]1[H:10])[H:7]"
O       -1.95024278      -1.16224947      -0.18602419
C       -0.76255557      -0.50802084      -0.20507243
C       -0.81838216       0.85224075       0.21043643
N        1.59244384       1.98368421       0.32145341
C        2.09535731       0.96181849       0.10394399
N        0.38710334      -1.07584422      -0.12052358
H       -2.62134287      -0.60605469       0.23091819
H       -0.83125963       1.60002755      -0.58573184
H        2.61315682       0.02585805       0.16435434
H        0.29572170      -2.07145982       0.06624570
10
Frame=4 idx=000803 GeodesicLength=0.4868957311741808 rxn_smarts="[O:1]([c:2]1[c:3]([H:8])[n:4][c:5]([H:9])[n:6]1[H:10])[H:7]>>[N:4]#[C:5][H:9].[O:1]([C:2]1=[C:3]([H:8])[N:6]1[H:10])[H:7]"
O       -1.93674634      -1.16602924      -0.22859136
C       -0.76091703      -0.49448496      -0.22183985
C       -0.78868705       0.84153440       0.24129585
N        1.58693923       1.95258684       0.28036430
C        2.08031732       0.92265975       0.05160304
N        0.40141707      -1.04398645      -0.08612920
H       -2.62914363      -0.61486808       0.16038822
H       -0.89066323       1.63825081      -0.49673560
H        2.61103713      -0.00299086       0.16131030
H        0.32644654      -2.03267220       0.13833432
10
Frame=5 idx=000803 GeodesicLength=0.609240094056551 rxn_smarts="[O:1]([c:2]1[c:3]([H:8])[n:4][c:5]([H:9])[n:6]1[H:10])[H:7]>>[N:4]#[C:5][H:9].[O:1]([C:2]1=[C:3]([H:8])[N:6]1[H:10])[H:7]"
O       -1.92123019      -1.16835902      -0.27197824
C       -0.75746795      -0.48102431      -0.23362482
C       -0.75904291       0.83098713       0.27014200
N        1.57990278       1.92412669       0.23168413
C        2.06474188       0.88438538       0.00159159
N        0.41486426      -1.01451766      -0.05232434
H       -2.63493842      -0.62153706       0.08517682
H       -0.94629282       1.67008499      -0.39858718
H        2.60659900      -0.02961609       0.15842668
H        0.35286437      -1.99453006       0.20949336
10
Frame=6 idx=000803 GeodesicLength=0.7313647423981271 rxn_smarts="[O:1]([c:2]1[c:3]([H:8])[n:4][c:5]([H:9])[n:6]1[H:10])[H:7]>>[N:4]#[C:5][H:9].[O:1]([C:2]1=[C:3]([H:8])[N:6]1[H:10])[H:7]"
O       -1.90453910      -1.16998520      -0.31481288
C       -0.75317403      -0.46790914      -0.24207452
C       -0.72882916       0.82003755       0.29819795
N        1.57139982       1.89857732       0.16985930
C        2.04884341       0.84637235      -0.04755301
N        0.42773555      -0.98766059      -0.02179169
H       -2.63757400      -0.62482980       0.00474951
H       -0.99848250       1.69592427      -0.28805487
H        2.59870486      -0.05358716       0.16282201
H        0.37591514      -1.95693959       0.27865820
10
Frame=7 idx=000803 GeodesicLength=0.8538901789532429 rxn_smarts="[O:1]([c:2]1[c:3]([H:8])[n:4][c:5]([H:9])[n:6]1[H:10])[H:7]>>[N:4]#[C:5][H:9].[O:1]([C:2]1=[C:3]([H:8])[N:6]1[H:10])[H:7]"
O       -1.88700093      -1.16937906      -0.35475999
C       -0.74882682      -0.45431068      -0.24814606
C       -0.69935279       0.81168247       0.31966780
N        1.55946937       1.87323006       0.10490999
C        2.03258575       0.80887465      -0.09140616
N        0.43954244      -0.96142107       0.00647300
H       -2.63859547      -0.62777045      -0.07043240
H       -1.04346011       1.71378672      -0.17752471
H        2.58901317      -0.07483782       0.17115051
H        0.39662539      -1.91985482       0.34006802
10
Frame=8 idx=000803 GeodesicLength=0.975802476923327 rxn_smarts="[O:1]([c:2]1[c:3]([H:8])[n:4][c:5]([H:9])[n:6]1[H:10])[H:7]>>[N:4]#[C:5][H:9].[O:1]([C:2]1=[C:3]([H:8])[N:6]1[H:10])[H:7]"
O       -1.86998030      -1.16791827      -0.39307284
C       -0.74535553      -0.44083175      -0.25331876
C       -0.67032834       0.80510119       0.33546537
N        1.54560342       1.84831718       0.03580323
C        2.01633962       0.77199249      -0.13213083
N        0.45037256      -0.93638992       0.03115699
H       -2.63746717      -0.63014425      -0.14143643
H       -1.08146938       1.72554209      -0.06436817
H        2.57702398      -0.09247102       0.18515176
H        0.41526113      -1.88319774       0.39674968
10
Frame=9 idx=000803 GeodesicLength=1.0976993213973645 rxn_smarts="[O:1]([c:2]1[c:3]([H:8])[n:4][c:5]([H:9])[n:6]1[H:10])[H:7]>>[N:4]#[C:5][H:9].[O:1]([C:2]1=[C:3]([H:8])[N:6]1[H:10])[H:7]"
O       -1.85308656      -1.16558498      -0.43030220
C       -0.74276540      -0.42747233      -0.25740985
C       -0.64202050       0.80021696       0.34635911
N        1.52961722       1.82267350      -0.03564904
C        1.99946043       0.73565734      -0.17074547
N        0.46004187      -0.91210726       0.05372888
H       -2.63409549      -0.63185717      -0.21036943
H       -1.11148151       1.73060100       0.05150673
H        2.56243853      -0.10607497       0.20194782
H        0.43189140      -1.84605209       0.45093345
10
Frame=10 idx=000803 GeodesicLength=1.220683561739863 rxn_smarts="[O:1]([c:2]1[c:3]([H:8])[n:4][c:5]([H:9])[n:6]1[H:10])[H:7]>>[N:4]#[C:5][H:9].[O:1]([C:2]1=[C:3]([H:8])[N:6]1[H:10])[H:7]"
O       -1.83712480      -1.16246293      -0.46526872
C       -0.74157162      -0.41459644      -0.26012966
C       -0.61364322       0.79614754       0.35403245
N        1.51074447       1.79512738      -0.11460861
C        1.98137717       0.69933200      -0.20853590
N        0.46848101      -0.88907290       0.07341867
H       -2.62708510      -0.63134199      -0.28170119
H       -1.13198867       1.72832120       0.17462576
H        2.54381002      -0.11319091       0.22504620
H        0.44700073      -1.80826295       0.50312100
10
Frame=11 idx=000803 GeodesicLength=1.3428113945085436 rxn_smarts="[O:1]([c:2]1[c:3]([H:8])[n:4][c:5]([H:9])[n:6]1[H:10])[H:7]>>[N:4]#[C:5][H:9].[O:1]([C:2]1=[C:3]([H:8])[N:6]1[H:10])[H:7]"
O       -1.82056587      -1.15891660      -0.50155887
C       -0.74139213      -0.40132813      -0.26193255
C       -0.58852989       0.79586788       0.35557736
N        1.49119290       1.76720611      -0.18309265
C        1.96271917       0.66419511      -0.24449044
N        0.47553154      -0.86508443       0.09577875
H       -2.62045775      -0.63367426      -0.35058350
H       -1.14475240       1.71990600       0.29405951
H        2.52667106      -0.12014653       0.23799103
H        0.45958337      -1.76802517       0.55825137
10
Frame=12 idx=000803 GeodesicLength=1.4651253993259015 rxn_smarts="[O:1]([c:2]1[c:3]([H:8])[n:4][c:5]([H:9])[n:6]1[H:10])[H:7]>>[N:4]#[C:5][H:9].[O:1]([C:2]1=[C:3]([H:8])[N:6]1[H:10])[H:7]"
O       -1.80353207      -1.15503646      -0.53868325
C       -0.74258196      -0.38770671      -0.26294184
C       -0.56601844       0.79864285       0.35216569
N        1.47116270       1.73890101      -0.24710569
C        1.94285763       0.62950953      -0.27958518
N        0.48080378      -0.83998650       0.11969521
H       -2.61205317      -0.63814992      -0.41973129
H       -1.14924844       1.70437593       0.41462784
H        2.50920378      -0.12618086       0.24538462
H        0.46940618      -1.72436886       0.61617388
10
Frame=13 idx=000803 GeodesicLength=1.5873398844617836 rxn_smarts="[O:1]([c:2]1[c:3]([H:8])[n:4][c:5]([H:9])[n:6]1[H:10])[H:7]>>[N:4]#[C:5][H:9].[O:1]([C:2]1=[C:3]([H:8])[N:6]1[H:10])[H:7]"
O       -1.78521117      -1.15107593      -0.57862035
C       -0.74528775      -0.37337467      -0.26392288
C       -0.54668833       0.80500421       0.34334562
N        1.45117749       1.71084070      -0.30661518
C        1.92166590       0.59508022      -0.31377399
N        0.48395041      -0.81301712       0.14548954
H       -2.60232118      -0.64579453      -0.48732613
H       -1.14474354       1.68094010       0.53657597
H        2.49160450      -0.13247550       0.24735911
H        0.47585367      -1.67612748       0.67748830
10
Frame=14 idx=000803 GeodesicLength=1.7095205230412023 rxn_smarts="[O:1]([c:2]1[c:3]([H:8])[n:4][c:5]([H:9])[n:6]1[H:10])[H:7]>>[N:4]#[C:5][H:9].[O:1]([C:2]1=[C:3]([H:8])[N:6]1[H:10])[H:7]"
O       -1.76476648      -1.14706926      -0.62162843
C       -0.74972569      -0.35795075      -0.26468269
C       -0.53110296       0.81507991       0.33001583
N        1.43110569       1.68332343      -0.36210833
C        1.89864782       0.56080621      -0.34710182
N        0.48461860      -0.78338213       0.17341357
H       -2.59138795      -0.65691605      -0.55364002
H       -1.12956202       1.64819515       0.65943344
H        2.47354952      -0.13974524       0.24421051
H        0.47862346      -1.62234127       0.74208794
10
Frame=15 idx=000803 GeodesicLength=1.833767811878382 rxn_smarts="[O:1]([c:2]1[c:3]([H:8])[n:4][c:5]([H:9])[n:6]1[H:10])[H:7]>>[N:4]#[C:5][H:9].[O:1]([C:2]1=[C:3]([H:8])[N:6]1[H:10])[H:7]"
O       -1.74107707      -1.14224729      -0.66493997
C       -0.75590041      -0.34124719      -0.26292549
C       -0.51910228       0.82705307       0.31671274
N        1.40908305       1.65551273      -0.41497167
C        1.87226307       0.52671215      -0.37978526
N        0.48262027      -0.75092682       0.20309931
H       -2.57733457      -0.66920948      -0.62195327
H       -1.10201493       1.60478751       0.77979234
H        2.45322500      -0.14739550       0.23657780
H        0.47823786      -1.56303919       0.80839347
10
Frame=16 idx=000803 GeodesicLength=1.9580522121932864 rxn_smarts="[O:1]([c:2]1[c:3]([H:8])[n:4][c:5]([H:9])[n:6]1[H:10])[H:7]>>[N:4]#[C:5][H:9].[O:1]([C:2]1=[C:3]([H:8])[N:6]1[H:10])[H:7]"
O       -1.71552317      -1.13630600      -0.70923997
C       -0.76480159      -0.32386192      -0.25720375
C       -0.50951920       0.83952860       0.30871356
N        1.38337863       1.62746046      -0.46846435
C        1.84304292       0.49280400      -0.41101308
N        0.47914132      -0.71826891       0.23227201
H       -2.56181554      -0.68158059      -0.69098032
H       -1.06194375       1.55517815       0.89312000
H        2.43088024      -0.15272916       0.23000237
H        0.47716014      -1.50222464       0.87279354
