16
Frame=0 idx=007604 GeodesicLength=0.0 rxn_smarts="[C:1]([C@@:2]1([H:11])[N:3]([H:12])[C@:4]1([C:5]([C:6](=[O:7])[H:16])([H:14])[H:15])[H:13])([H:8])([H:9])[H:10]>>[C:1]([C@@:2]1([H:11])[N+:3]([H:12])([H:13])[C-:4]1[C:5]([C:6](=[O:7])[H:16])([H:14])[H:15])([H:8])([H:9])[H:10]"
C       -1.22990687      -0.20629931       1.13743813
C       -1.14367519      -0.04186060      -0.36024973
N       -0.99634733       1.36739471      -0.81916399
C        0.12067286      -0.06456744      -1.13826724
C        1.36586294       0.20706561      -0.31913329
C        1.88609671      -1.05942041       0.31307297
O        1.27240710      -2.08423248       0.42322046
H       -0.45886365       0.35597353       1.66216232
H       -2.19790346       0.14717328       1.49648080
H       -1.12974072      -1.26061948       1.39627007
H       -1.96313209      -0.55963834      -0.85720503
H       -1.69694905       1.48164964      -1.55412554
H       -0.16598191       1.17361868      -1.63297549
H        1.24216714       0.92835632       0.50076483
H        2.17188529       0.59702864      -0.94801807
H        2.92340826      -0.98162242       0.69972883
16
Frame=1 idx=007604 GeodesicLength=0.06858636877049729 rxn_smarts="[C:1]([C@@:2]1([H:11])[N:3]([H:12])[C@:4]1([C:5]([C:6](=[O:7])[H:16])([H:14])[H:15])[H:13])([H:8])([H:9])[H:10]>>[C:1]([C@@:2]1([H:11])[N+:3]([H:12])([H:13])[C-:4]1[C:5]([C:6](=[O:7])[H:16])([H:14])[H:15])([H:8])([H:9])[H:10]"
C       -1.23605649      -0.19952586       1.14367812
C       -1.14685452      -0.04823743      -0.35489748
N       -0.99854767       1.35358461      -0.82828689
C        0.11774750      -0.05081822      -1.12921964
C        1.36638588       0.20816578      -0.31385595
C        1.88794148      -1.06439006       0.30403599
O        1.27654060      -2.09230027       0.39767968
H       -0.47025383       0.37275721       1.66541218
H       -2.20740349       0.14948558       1.49816329
H       -1.12734964      -1.25075493       1.41174805
H       -1.95989935      -0.57532570      -0.85231331
H       -1.69693510       1.47152864      -1.56352753
H       -0.14790438       1.18975242      -1.64141486
H        1.24501333       0.92244811       0.51268033
H        2.17152029       0.60524116      -0.93959568
H        2.92605538      -0.99161104       0.68971371
16
Frame=2 idx=007604 GeodesicLength=0.13710965388710433 rxn_smarts="[C:1]([C@@:2]1([H:11])[N:3]([H:12])[C@:4]1([C:5]([C:6](=[O:7])[H:16])([H:14])[H:15])[H:13])([H:8])([H:9])[H:10]>>[C:1]([C@@:2]1([H:11])[N+:3]([H:12])([H:13])[C-:4]1[C:5]([C:6](=[O:7])[H:16])([H:14])[H:15])([H:8])([H:9])[H:10]"
C       -1.24226292      -0.19252304       1.14990341
C       -1.14984590      -0.05471884      -0.34945892
N       -1.00098972       1.33960607      -0.83752644
C        0.11483332      -0.03697170      -1.12013102
C        1.36688595       0.20918183      -0.30858609
C        1.88973375      -1.06947827       0.29455139
O        1.28038944      -2.10007536       0.37167065
H       -0.48189326       0.39000741       1.66840625
H       -2.21702419       0.15183218       1.49969050
H       -1.12481195      -1.24040991       1.42747039
H       -1.95613562      -0.59149243      -0.84722557
H       -1.69685656       1.46082573      -1.57337886
H       -0.12963160       1.20631460      -1.64849638
H        1.24788445       0.91619321       0.52470287
H        2.17115045       0.61348619      -0.93098506
H        2.92857436      -1.00177767       0.67939288
16
Frame=3 idx=007604 GeodesicLength=0.2055335672672588 rxn_smarts="[C:1]([C@@:2]1([H:11])[N:3]([H:12])[C@:4]1([C:5]([C:6](=[O:7])[H:16])([H:14])[H:15])[H:13])([H:8])([H:9])[H:10]>>[C:1]([C@@:2]1([H:11])[N+:3]([H:12])([H:13])[C-:4]1[C:5]([C:6](=[O:7])[H:16])([H:14])[H:15])([H:8])([H:9])[H:10]"
C       -1.24851094      -0.18534139       1.15608445
C       -1.15264283      -0.06128260      -0.34395597
N       -1.00361943       1.32548060      -0.84685217
C        0.11192895      -0.02308393      -1.11101096
C        1.36737372       0.21010865      -0.30337684
C        1.89149491      -1.07464983       0.28462105
O        1.28394888      -2.10750030       0.34535292
H       -0.49369525       0.40755384       1.67112549
H       -2.22670185       0.15424289       1.50107700
H       -1.12225037      -1.22965357       1.44335160
H       -1.95185720      -0.60805978      -0.84195920
H       -1.69671954       1.44962320      -1.58358280
H       -0.11126715       1.22325090      -1.65425351
H        1.25080424       0.90961130       0.53675515
H        2.17077753       0.62172074      -0.92227302
H        2.93093633      -1.01202073       0.66889681
16
Frame=4 idx=007604 GeodesicLength=0.27383800446399686 rxn_smarts="[C:1]([C@@:2]1([H:11])[N:3]([H:12])[C@:4]1([C:5]([C:6](=[O:7])[H:16])([H:14])[H:15])[H:13])([H:8])([H:9])[H:10]>>[C:1]([C@@:2]1([H:11])[N+:3]([H:12])([H:13])[C-:4]1[C:5]([C:6](=[O:7])[H:16])([H:14])[H:15])([H:8])([H:9])[H:10]"
C       -1.25477669      -0.17803177       1.16217892
C       -1.15524302      -0.06790567      -0.33840185
N       -1.00637728       1.31122986      -0.85621083
C        0.10902665      -0.00921417      -1.10186376
C        1.36785110       0.21093609      -0.29827511
C        1.89324105      -1.07984481       0.27427827
O        1.28724580      -2.11452057       0.31886434
H       -0.50555577       0.42520590       1.67354634
H       -2.23635658       0.15676685       1.50232895
H       -1.11979264      -1.21856682       1.45926989
H       -1.94710217      -0.62492323      -0.83651146
H       -1.69651768       1.43801105      -1.59402413
H       -0.09291750       1.24047636      -1.65875881
H        1.25377170       0.90272228       0.54874372
H        2.17039578       0.62988122      -0.91353213
H        2.93310722      -1.02222256       0.65836766
16
Frame=5 idx=007604 GeodesicLength=0.3420657343576481 rxn_smarts="[C:1]([C@@:2]1([H:11])[N:3]([H:12])[C@:4]1([C:5]([C:6](=[O:7])[H:16])([H:14])[H:15])[H:13])([H:8])([H:9])[H:10]>>[C:1]([C@@:2]1([H:11])[N+:3]([H:12])([H:13])[C-:4]1[C:5]([C:6](=[O:7])[H:16])([H:14])[H:15])([H:8])([H:9])[H:10]"
C       -1.26109634      -0.17056484       1.16819356
C       -1.15764440      -0.07457324      -0.33280162
N       -1.00924910       1.29685414      -0.86562051
C        0.10614259       0.00461078      -1.09266498
C        1.36832567       0.21166810      -0.29325009
C        1.89499996      -1.08508011       0.26350494
O        1.29029570      -2.12117181       0.29220032
H       -0.51754279       0.44304017       1.67567669
H       -2.24605203       0.15939105       1.50342304
H       -1.11742540      -1.20710212       1.47526869
H       -1.94184019      -0.64209589      -0.83088631
H       -1.69625652       1.42597498      -1.60471153
H       -0.07462417       1.25797835      -1.66202133
H        1.25679511       0.89550036       0.56073168
H        2.17000509       0.63801733      -0.90472380
H        2.93516681      -1.03244727       0.64768125
16
Frame=6 idx=007604 GeodesicLength=0.4101929143772386 rxn_smarts="[C:1]([C@@:2]1([H:11])[N:3]([H:12])[C@:4]1([C:5]([C:6](=[O:7])[H:16])([H:14])[H:15])[H:13])([H:8])([H:9])[H:10]>>[C:1]([C@@:2]1([H:11])[N+:3]([H:12])([H:13])[C-:4]1[C:5]([C:6](=[O:7])[H:16])([H:14])[H:15])([H:8])([H:9])[H:10]"
C       -1.26750085      -0.16289996       1.17412377
C       -1.15984433      -0.08126865      -0.32714972
N       -1.01221514       1.28234660      -0.87509046
C        0.10328806       0.01836449      -1.08337470
C        1.36879196       0.21229425      -0.28826248
C        1.89679358      -1.09035980       0.25227933
O        1.29314781      -2.12747585       0.26531389
H       -0.52973167       0.46114329       1.67750660
H       -2.25583991       0.16210855       1.50432117
H       -1.11511263      -1.19519215       1.49137649
H       -1.93604190      -0.65957579      -0.82506438
H       -1.69590140       1.41349426      -1.61566251
H       -0.05644697       1.27571573      -1.66401762
H        1.25984997       0.88789030       0.57277450
H        2.16958958       0.64615493      -0.89578029
H        2.93717383      -1.04274020       0.63670641
16
Frame=7 idx=007604 GeodesicLength=0.4782726938896562 rxn_smarts="[C:1]([C@@:2]1([H:11])[N:3]([H:12])[C@:4]1([C:5]([C:6](=[O:7])[H:16])([H:14])[H:15])[H:13])([H:8])([H:9])[H:10]>>[C:1]([C@@:2]1([H:11])[N+:3]([H:12])([H:13])[C-:4]1[C:5]([C:6](=[O:7])[H:16])([H:14])[H:15])([H:8])([H:9])[H:10]"
C       -1.27396811      -0.15509056       1.17994334
C       -1.16184864      -0.08797545      -0.32145574
N       -1.01522717       1.26772122      -0.88457718
C        0.10045349       0.03200592      -1.07400814
C        1.36925688       0.21281850      -0.28335389
C        1.89862836      -1.09563320       0.24064635
O        1.29580766      -2.13340484       0.23833004
H       -0.54201620       0.47933349       1.67902846
H       -2.26565093       0.16496355       1.50504730
H       -1.11298276      -1.18292479       1.50749395
H       -1.92975276      -0.67727638      -0.81904566
H       -1.69546752       1.40063880      -1.62677356
H       -0.03843948       1.29364362      -1.66486785
H        1.26294980       0.87993270       0.58479256
H        2.16915369       0.65425436      -0.88677380
H        2.93910371      -1.05300693       0.62557382
16
Frame=8 idx=007604 GeodesicLength=0.5462934271796205 rxn_smarts="[C:1]([C@@:2]1([H:11])[N:3]([H:12])[C@:4]1([C:5]([C:6](=[O:7])[H:16])([H:14])[H:15])[H:13])([H:8])([H:9])[H:10]>>[C:1]([C@@:2]1([H:11])[N+:3]([H:12])([H:13])[C-:4]1[C:5]([C:6](=[O:7])[H:16])([H:14])[H:15])([H:8])([H:9])[H:10]"
C       -1.28053647      -0.14709564       1.18566053
C       -1.16365851      -0.09468477      -0.31571166
N       -1.01827129       1.25296404      -0.89410135
C        0.09765166       0.04552162      -1.06453010
C        1.36971872       0.21323816      -0.27848156
C        1.90052742      -1.10091241       0.22857472
O        1.29830783      -2.13898554       0.21120002
H       -0.55447473       0.49770599       1.68024559
H       -2.27554560       0.16795460       1.50557261
H       -1.11101684      -1.17023450       1.52367440
H       -1.92294059      -0.69521578      -0.81281207
H       -1.69491491       1.38736858      -1.63808575
H       -0.02063991       1.31174554      -1.66455133
H        1.26607710       0.87157642       0.59685832
H        2.16868676       0.66236239      -0.87763257
H        2.94102937      -1.06330870       0.61412020
16
Frame=9 idx=007604 GeodesicLength=0.6142884185466704 rxn_smarts="[C:1]([C@@:2]1([H:11])[N:3]([H:12])[C@:4]1([C:5]([C:6](=[O:7])[H:16])([H:14])[H:15])[H:13])([H:8])([H:9])[H:10]>>[C:1]([C@@:2]1([H:11])[N+:3]([H:12])([H:13])[C-:4]1[C:5]([C:6](=[O:7])[H:16])([H:14])[H:15])([H:8])([H:9])[H:10]"
C       -1.28723910      -0.13887079       1.19127791
C       -1.16527590      -0.10138987      -0.30990408
N       -1.02133993       1.23805459      -0.90367372
C        0.09489101       0.05890091      -1.05490480
C        1.37017424       0.21354766      -0.27359684
C        1.90250655      -1.10620424       0.21603754
O        1.30067148      -2.14424292       0.18386841
H       -0.56718391       0.51635628       1.68114727
H       -2.28557976       0.17108077       1.50586945
H       -1.10918631      -1.15704566       1.53995736
H       -1.91557764      -0.71340978      -0.80633227
H       -1.69421343       1.37362464      -1.64964160
H       -0.00306037       1.33001653      -1.66305329
H        1.26921140       0.86275823       0.60904470
H        2.16818029       0.67052157      -0.86826790
H        2.94302138      -1.07369792       0.60217188
16
Frame=10 idx=007604 GeodesicLength=0.6822364438800084 rxn_smarts="[C:1]([C@@:2]1([H:11])[N:3]([H:12])[C@:4]1([C:5]([C:6](=[O:7])[H:16])([H:14])[H:15])[H:13])([H:8])([H:9])[H:10]>>[C:1]([C@@:2]1([H:11])[N+:3]([H:12])([H:13])[C-:4]1[C:5]([C:6](=[O:7])[H:16])([H:14])[H:15])([H:8])([H:9])[H:10]"
C       -1.29405495      -0.13046337       1.19678137
C       -1.16670767      -0.10807801      -0.30403959
N       -1.02438882       1.22299797      -0.91326849
C        0.09215967       0.07212091      -1.04514845
C        1.37062930       0.21374973      -0.26874815
C        1.90457269      -1.11147004       0.20304902
O        1.30290722      -2.14915265       0.15641593
H       -0.58004205       0.53512489       1.68173794
H       -2.29568754       0.17438478       1.50596312
H       -1.10760497      -1.14343873       1.55627354
H       -1.90769806      -0.73178930      -0.79960469
H       -1.69335188       1.35946486      -1.66136932
H        0.01423588       1.34842779      -1.66044740
H        1.27236661       0.85351340       0.62127168
H        2.16763444       0.67869264      -0.85875819
H        2.94503013      -1.08408488       0.58989167
16
Frame=11 idx=007604 GeodesicLength=0.7501313472710098 rxn_smarts="[C:1]([C@@:2]1([H:11])[N:3]([H:12])[C@:4]1([C:5]([C:6](=[O:7])[H:16])([H:14])[H:15])[H:13])([H:8])([H:9])[H:10]>>[C:1]([C@@:2]1([H:11])[N+:3]([H:12])([H:13])[C-:4]1[C:5]([C:6](=[O:7])[H:16])([H:14])[H:15])([H:8])([H:9])[H:10]"
C       -1.30094697      -0.12192933       1.20215416
C       -1.16796454      -0.11473806      -0.29812434
N       -1.02738104       1.20780700      -0.92285165
C        0.08944422       0.08516184      -1.03528296
C        1.37108817       0.21385064      -0.26399004
C        1.90671492      -1.11665954       0.18964672
O        1.30502137      -2.15369114       0.12890863
H       -0.59292036       0.55383861       1.68202496
H       -2.30579008       0.17790764       1.50588618
H       -1.10637323      -1.12951922       1.57253489
H       -1.89935720      -0.75027500      -0.79262596
H       -1.69233588       1.34494674      -1.67319173
H        0.03121025       1.36695187      -1.65682533
H        1.27556035       0.84389643       0.63343780
H        2.16705310       0.68682263      -0.84919414
H        2.94697693      -1.09437109       0.57749278
16
Frame=12 idx=007604 GeodesicLength=0.8179879363362845 rxn_smarts="[C:1]([C@@:2]1([H:11])[N:3]([H:12])[C@:4]1([C:5]([C:6](=[O:7])[H:16])([H:14])[H:15])[H:13])([H:8])([H:9])[H:10]>>[C:1]([C@@:2]1([H:11])[N+:3]([H:12])([H:13])[C-:4]1[C:5]([C:6](=[O:7])[H:16])([H:14])[H:15])([H:8])([H:9])[H:10]"
C       -1.30796283      -0.11321478       1.20740962
C       -1.16904961      -0.12136977      -0.29214095
N       -1.03031123       1.19244935      -0.93244656
C        0.08675511       0.09802329      -1.02526971
C        1.37154880       0.21384672      -0.25926771
C        1.90895692      -1.12178937       0.17578640
O        1.30703752      -2.15788624       0.10128031
H       -0.60591460       0.57261788       1.68201070
H       -2.31596303       0.18165683       1.50560545
H       -1.10547196      -1.11519917       1.58881123
H       -1.89051497      -0.76890587      -0.78536370
H       -1.69111564       1.32999622      -1.68517460
H        0.04785448       1.38559775      -1.65214781
H        1.27876956       0.83383786       0.64563402
H        2.16642735       0.69496992      -0.83947698
H        2.94895414      -1.10463062       0.56475028
16
Frame=13 idx=007604 GeodesicLength=0.885843963769776 rxn_smarts="[C:1]([C@@:2]1([H:11])[N:3]([H:12])[C@:4]1([C:5]([C:6](=[O:7])[H:16])([H:14])[H:15])[H:13])([H:8])([H:9])[H:10]>>[C:1]([C@@:2]1([H:11])[N+:3]([H:12])([H:13])[C-:4]1[C:5]([C:6](=[O:7])[H:16])([H:14])[H:15])([H:8])([H:9])[H:10]"
C       -1.31513644      -0.10426559       1.21255683
C       -1.16996547      -0.12797089      -0.28606683
N       -1.03317352       1.17688936      -0.94207329
C        0.08409517       0.11070602      -1.01507632
C        1.37200564       0.21372994      -0.25453351
C        1.91131413      -1.12687290       0.16141747
O        1.30898347      -2.16176802       0.07342329
H       -0.61910290       0.59157313       1.68168283
H       -2.32626198       0.18563871       1.50509351
H       -1.10486965      -1.10038716       1.60515830
H       -1.88113557      -0.78771178      -0.77776588
H       -1.68964377       1.31452816      -1.69737817
H        0.06416050       1.40438581      -1.64638178
H        1.28197297       0.82325823       0.65793805
H        2.16574295       0.70318209      -0.82950884
H        2.95101448      -1.11491512       0.55151435
16
Frame=14 idx=007604 GeodesicLength=0.9536898460468733 rxn_smarts="[C:1]([C@@:2]1([H:11])[N:3]([H:12])[C@:4]1([C:5]([C:6](=[O:7])[H:16])([H:14])[H:15])[H:13])([H:8])([H:9])[H:10]>>[C:1]([C@@:2]1([H:11])[N+:3]([H:12])([H:13])[C-:4]1[C:5]([C:6](=[O:7])[H:16])([H:14])[H:15])([H:8])([H:9])[H:10]"
C       -1.32244702      -0.09512655       1.21758419
C       -1.17072159      -0.13453968      -0.27990544
N       -1.03593437       1.16112692      -0.95170522
C        0.08145626       0.12319860      -1.00471586
C        1.37246174       0.21350842      -0.24982516
C        1.91377660      -1.13186486       0.14657318
O        1.31085165      -2.16530495       0.04542335
H       -0.63238462       0.61056294       1.68105598
H       -2.33663378       0.18989921       1.50436682
H       -1.10466944      -1.08517045       1.62151590
H       -1.87125927      -0.80663745      -0.76983078
H       -1.68790756       1.29857850      -1.70975080
H        0.08010565       1.42330047      -1.63958706
H        1.28517992       0.81220150       0.67027444
H        2.16500334       0.71142367      -0.81935211
H        2.95312247      -1.12515629       0.53787857
16
Frame=15 idx=007604 GeodesicLength=1.0215514922133693 rxn_smarts="[C:1]([C@@:2]1([H:11])[N:3]([H:12])[C@:4]1([C:5]([C:6](=[O:7])[H:16])([H:14])[H:15])[H:13])([H:8])([H:9])[H:10]>>[C:1]([C@@:2]1([H:11])[N+:3]([H:12])([H:13])[C-:4]1[C:5]([C:6](=[O:7])[H:16])([H:14])[H:15])([H:8])([H:9])[H:10]"
C       -1.32994052      -0.08573661       1.22250263
C       -1.17132701      -0.14107775      -0.27363274
N       -1.03859184       1.14511920      -0.96136806
C        0.07884482       0.13550302      -0.99415290
C        1.37291868       0.21317282      -0.24508920
C        1.91636842      -1.13678257       0.13119780
O        1.31266993      -2.16852833       0.01717476
H       -0.64584893       0.62971404       1.68011764
H       -2.34715091       0.19445378       1.50339836
H       -1.10485565      -1.06945028       1.63794676
H       -1.86085472      -0.82572458      -0.76150547
H       -1.68585624       1.28204768      -1.72236478
H        0.09568383       1.44237206      -1.63170306
H        1.28837477       0.80058518       0.68273021
H        2.16420584       0.71974420      -0.80889827
H        2.95535954      -1.13541185       0.52364632
16
Frame=16 idx=007604 GeodesicLength=1.089481253433251 rxn_smarts="[C:1]([C@@:2]1([H:11])[N:3]([H:12])[C@:4]1([C:5]([C:6](=[O:7])[H:16])([H:14])[H:15])[H:13])([H:8])([H:9])[H:10]>>[C:1]([C@@:2]1([H:11])[N+:3]([H:12])([H:13])[C-:4]1[C:5]([C:6](=[O:7])[H:16])([H:14])[H:15])([H:8])([H:9])[H:10]"
C       -1.33764390      -0.07603836       1.22731916
C       -1.17177425      -0.14758365      -0.26722017
N       -1.04112409       1.12881344      -0.97108792
C        0.07626043       0.14762246      -0.98334981
C        1.37335551       0.21270854      -0.24027241
C        1.91908834      -1.14163031       0.11523275
O        1.31445376      -2.17144517      -0.01143499
H       -0.65957696       0.64913697       1.67884211
H       -2.35785169       0.19930672       1.50215518
H       -1.10539183      -1.05311710       1.65451364
H       -1.84986674      -0.84499657      -0.75272297
H       -1.68341213       1.26482944      -1.73529005
H        0.11088953       1.46162379      -1.62267334
H        1.29151816       0.78829998       0.69538721
H        2.16331392       0.72818960      -0.79802989
H        2.95776195      -1.14571978       0.50863152
