8
Frame=0 idx=002602 GeodesicLength=0.0 rxn_smarts="[C:1](#[C:2][C:3]([C:4]#[N:5])([H:7])[H:8])[H:6]>>[C:1](/[C:2](=[C:3](\[C:4]#[N:5])[H:8])[H:7])[H:6]"
C        1.76049224       0.67146295       0.13936737
C        0.68846288       0.06963666      -0.11278769
C       -0.58112489      -0.37492041      -0.50535661
C       -1.75206960       0.28134753      -0.06970131
N       -2.71010561       0.81757431       0.28126703
H        2.55286681       0.76541037       0.85674363
H        0.71099875      -0.92834448       0.46252320
H       -0.66952058      -1.30216694      -1.05205561
8
Frame=1 idx=002602 GeodesicLength=0.06514414969725026 rxn_smarts="[C:1](#[C:2][C:3]([C:4]#[N:5])([H:7])[H:8])[H:6]>>[C:1](/[C:2](=[C:3](\[C:4]#[N:5])[H:8])[H:7])[H:6]"
C        1.74289990       0.69663777       0.14582455
C        0.70300715       0.05349737      -0.14482137
C       -0.57674643      -0.39576731      -0.49341458
C       -1.73644873       0.28393069      -0.05889679
N       -2.68268493       0.84427511       0.28533817
H        2.52312034       0.78649499       0.87777626
H        0.71138194      -0.95535236       0.44063587
H       -0.68452925      -1.31371627      -1.05244211
8
Frame=2 idx=002602 GeodesicLength=0.13008801139884543 rxn_smarts="[C:1](#[C:2][C:3]([C:4]#[N:5])([H:7])[H:8])[H:6]>>[C:1](/[C:2](=[C:3](\[C:4]#[N:5])[H:8])[H:7])[H:6]"
C        1.72368123       0.72086798       0.15259654
C        0.71573650       0.03985799      -0.17063608
C       -0.57147903      -0.41439950      -0.48046111
C       -1.72205126       0.28541249      -0.04866496
N       -2.65781638       0.86764351       0.28661955
H        2.49831383       0.80348357       0.89204600
H        0.70991668      -0.98148435       0.42237376
H       -0.69630157      -1.32138169      -1.05387371
8
Frame=3 idx=002602 GeodesicLength=0.19531977563599873 rxn_smarts="[C:1](#[C:2][C:3]([C:4]#[N:5])([H:7])[H:8])[H:6]>>[C:1](/[C:2](=[C:3](\[C:4]#[N:5])[H:8])[H:7])[H:6]"
C        1.70329711       0.74467336       0.16035730
C        0.72670797       0.02865565      -0.19063300
C       -0.56581396      -0.43121238      -0.46673454
C       -1.70921610       0.28537925      -0.03803826
N       -2.63589446       0.88836139       0.28449093
H        2.47960195       0.81704934       0.90006540
H        0.70688062      -1.00720052       0.40714755
H       -0.70556313      -1.32570609      -1.05665538
8
Frame=4 idx=002602 GeodesicLength=0.2599726272704143 rxn_smarts="[C:1](#[C:2][C:3]([C:4]#[N:5])([H:7])[H:8])[H:6]>>[C:1](/[C:2](=[C:3](\[C:4]#[N:5])[H:8])[H:7])[H:6]"
C        1.68167880       0.76803588       0.16995398
C        0.73599243       0.01970464      -0.20485602
C       -0.55979756      -0.44617339      -0.45257241
C       -1.69799991       0.28434532      -0.02781326
N       -2.61726160       0.90581889       0.27945056
H        2.46771520       0.82709484       0.90126526
H        0.70177821      -1.03217452       0.39507804
H       -0.71210557      -1.32665166      -1.06050614
8
Frame=5 idx=002602 GeodesicLength=0.32488116923136934 rxn_smarts="[C:1](#[C:2][C:3]([C:4]#[N:5])([H:7])[H:8])[H:6]>>[C:1](/[C:2](=[C:3](\[C:4]#[N:5])[H:8])[H:7])[H:6]"
C        1.66080744       0.78927151       0.17900171
C        0.74473463       0.01125238      -0.21595101
C       -0.55349737      -0.45995339      -0.43897228
C       -1.68705487       0.28344847      -0.01807734
N       -2.59955703       0.92144835       0.27415505
H        2.45740836       0.83819021       0.90040724
H        0.69497545      -1.05786957       0.38454576
H       -0.71781661      -1.32578797      -1.06510913
8
Frame=6 idx=002602 GeodesicLength=0.38975727021230644 rxn_smarts="[C:1](#[C:2][C:3]([C:4]#[N:5])([H:7])[H:8])[H:6]>>[C:1](/[C:2](=[C:3](\[C:4]#[N:5])[H:8])[H:7])[H:6]"
C        1.64060874       0.80860727       0.18713623
C        0.75315417       0.00294373      -0.22465462
C       -0.54691366      -0.47283275      -0.42587199
C       -1.67617190       0.28239424      -0.00799844
N       -2.58210057       0.93605568       0.26844017
H        2.44741767       0.85062205       0.89839280
H        0.68687688      -1.08444386       0.37476241
H       -0.72287133      -1.32334635      -1.07020656
8
Frame=7 idx=002602 GeodesicLength=0.45477595496805084 rxn_smarts="[C:1](#[C:2][C:3]([C:4]#[N:5])([H:7])[H:8])[H:6]>>[C:1](/[C:2](=[C:3](\[C:4]#[N:5])[H:8])[H:7])[H:6]"
C        1.62158826       0.82604858       0.19326905
C        0.76157377      -0.00572256      -0.23185331
C       -0.54007941      -0.48516930      -0.41341432
C       -1.66498297       0.28124745       0.00261853
N       -2.56404125       0.95031551       0.26294353
H        2.43600640       0.86529782       0.89692794
H        0.67773148      -1.11222283       0.36516693
H       -0.72779628      -1.31979468      -1.07565835
8
Frame=8 idx=002602 GeodesicLength=0.5197690820726706 rxn_smarts="[C:1](#[C:2][C:3]([C:4]#[N:5])([H:7])[H:8])[H:6]>>[C:1](/[C:2](=[C:3](\[C:4]#[N:5])[H:8])[H:7])[H:6]"
C        1.60411704       0.84158339       0.19633578
C        0.77026583      -0.01515160      -0.23824651
C       -0.53294175      -0.49719613      -0.40156957
C       -1.65313187       0.28005238       0.01410498
N       -2.54471387       0.96471254       0.25800116
H        2.42148762       0.88268954       0.89735252
H        0.66781011      -1.14135771       0.35523987
H       -0.73289312      -1.31533241      -1.08121822
8
Frame=9 idx=002602 GeodesicLength=0.5849185891360394 rxn_smarts="[C:1](#[C:2][C:3]([C:4]#[N:5])([H:7])[H:8])[H:6]>>[C:1](/[C:2](=[C:3](\[C:4]#[N:5])[H:8])[H:7])[H:6]"
C        1.58757468       0.85613531       0.19746075
C        0.77908230      -0.02494363      -0.24333976
C       -0.52553775      -0.50875791      -0.39039276
C       -1.64092791       0.27897988       0.02572121
N       -2.52478979       0.97856963       0.25358112
H        2.40563985       0.90145375       0.89831265
H        0.65668726      -1.17139840       0.34559598
H       -0.73772865      -1.31003861      -1.08693919
8
Frame=10 idx=002602 GeodesicLength=0.6501376138312929 rxn_smarts="[C:1](#[C:2][C:3]([C:4]#[N:5])([H:7])[H:8])[H:6]>>[C:1](/[C:2](=[C:3](\[C:4]#[N:5])[H:8])[H:7])[H:6]"
C        1.57212223       0.86970518       0.19611439
C        0.78818275      -0.03539313      -0.24734171
C       -0.51786126      -0.52005219      -0.37981402
C       -1.62823443       0.27792384       0.03767879
N       -2.50386159       0.99227652       0.24982614
H        2.38763161       0.92200312       0.90040417
H        0.64446056      -1.20255191       0.33595799
H       -0.74243986      -1.30391143      -1.09282574
8
Frame=11 idx=002602 GeodesicLength=0.7154611113282505 rxn_smarts="[C:1](#[C:2][C:3]([C:4]#[N:5])([H:7])[H:8])[H:6]>>[C:1](/[C:2](=[C:3](\[C:4]#[N:5])[H:8])[H:7])[H:6]"
C        1.55732794       0.88272333       0.19321280
C        0.79747547      -0.04629623      -0.24973586
C       -0.50994140      -0.53099051      -0.36981040
C       -1.61526230       0.27693752       0.04956116
N       -2.48241899       1.00543335       0.24663444
H        2.36869437       0.94368718       0.90250103
H        0.63080121      -1.23463791       0.32665760
H       -0.74667631      -1.29685673      -1.09902078
8
Frame=12 idx=002602 GeodesicLength=0.780870462020769 rxn_smarts="[C:1](#[C:2][C:3]([C:4]#[N:5])([H:7])[H:8])[H:6]>>[C:1](/[C:2](=[C:3](\[C:4]#[N:5])[H:8])[H:7])[H:6]"
C        1.54327366       0.89514831       0.18842058
C        0.80708107      -0.05790097      -0.25050929
C       -0.50176749      -0.54172297      -0.36033208
C       -1.60193333       0.27594811       0.06146846
N       -2.46012554       1.01832322       0.24416180
H        2.34824898       0.96689659       0.90488702
H        0.61567789      -1.26786199       0.31750458
H       -0.75045524      -1.28883030      -1.10560107
8
Frame=13 idx=002602 GeodesicLength=0.8463783705529652 rxn_smarts="[C:1](#[C:2][C:3]([C:4]#[N:5])([H:7])[H:8])[H:6]>>[C:1](/[C:2](=[C:3](\[C:4]#[N:5])[H:8])[H:7])[H:6]"
C        1.52991651       0.90704386       0.18190101
C        0.81702725      -0.07024998      -0.24937020
C       -0.49334319      -0.55226897      -0.35134403
C       -1.58826093       0.27496131       0.07330617
N       -2.43709524       1.03086868       0.24243841
H        2.32649968       0.99163382       0.90723677
H        0.59888814      -1.30225990       0.30851372
H       -0.75363222      -1.27972881      -1.11268186
8
Frame=14 idx=002602 GeodesicLength=0.911965395474191 rxn_smarts="[C:1](#[C:2][C:3]([C:4]#[N:5])([H:7])[H:8])[H:6]>>[C:1](/[C:2](=[C:3](\[C:4]#[N:5])[H:8])[H:7])[H:6]"
C        1.51715512       0.91844499       0.17391108
C        0.82731387      -0.08336971      -0.24589933
C       -0.48468004      -0.56263678      -0.34279839
C       -1.57433935       0.27395399       0.08497162
N       -2.41349780       1.04297493       0.24145600
H        2.30381337       1.01788840       0.90907252
H        0.58020662      -1.33786776       0.29969069
H       -0.75597179      -1.26938806      -1.12040420
8
Frame=15 idx=002602 GeodesicLength=0.9776232194044241 rxn_smarts="[C:1](#[C:2][C:3]([C:4]#[N:5])([H:7])[H:8])[H:6]>>[C:1](/[C:2](=[C:3](\[C:4]#[N:5])[H:8])[H:7])[H:6]"
C        1.50504474       0.92926321       0.16442117
C        0.83797330      -0.09737105      -0.23972135
C       -0.47577432      -0.57286691      -0.33465267
C       -1.56017081       0.27291349       0.09640122
N       -2.38934543       1.05462293       0.24131607
H        2.28015544       1.04585729       0.91018201
H        0.55940873      -1.37476574       0.29093580
H       -0.75729166      -1.25765323      -1.12888225
8
Frame=16 idx=002602 GeodesicLength=1.0432934954656614 rxn_smarts="[C:1](#[C:2][C:3]([C:4]#[N:5])([H:7])[H:8])[H:6]>>[C:1](/[C:2](=[C:3](\[C:4]#[N:5])[H:8])[H:7])[H:6]"
C        1.49358167       0.93939480       0.15350524
C        0.84898585      -0.11229887      -0.23035420
C       -0.46662735      -0.58297631      -0.32683078
C       -1.54581959       0.27179182       0.10757001
N       -2.36476795       1.06575901       0.24201266
H        2.25567778       1.07562238       0.91019888
H        0.53629978      -1.41297279       0.28210539
H       -0.75733018      -1.24432004      -1.13820720
