12
Frame=0 idx=000351 GeodesicLength=0.0 rxn_smarts="[C:1]([C@@:2]1([H:10])[O:3][C@:4]1([C:5]#[C:6][H:12])[H:11])([H:7])([H:8])[H:9]>>[C:1]([C@@:2]1([H:10])[O:3][C@:4]1([C:6](=[C:5])[H:12])[H:11])([H:7])([H:8])[H:9]"
C       -1.41056112       0.70295990      -0.18623221
C       -0.69912431      -0.52021937       0.29397421
O        0.10318943      -1.23184598      -0.62627906
C        0.75914104      -0.58074601       0.46690276
C        1.53018176       0.92923561       0.49513292
C        2.05251465       0.29182658      -0.44060375
H       -0.76176388       1.31179756      -0.81353836
H       -1.72671349       1.30272175       0.66872891
H       -2.29549075       0.41942023      -0.75833515
H       -1.26573904      -1.16826187       0.96160546
H        1.17760794      -1.25909888       1.19922753
H        2.53675772      -0.19778951      -1.26058322
12
Frame=1 idx=000351 GeodesicLength=0.0415653169642754 rxn_smarts="[C:1]([C@@:2]1([H:10])[O:3][C@:4]1([C:5]#[C:6][H:12])[H:11])([H:7])([H:8])[H:9]>>[C:1]([C@@:2]1([H:10])[O:3][C@:4]1([C:6](=[C:5])[H:12])[H:11])([H:7])([H:8])[H:9]"
C       -1.41344684       0.70256251      -0.18516050
C       -0.70414274      -0.52123805       0.29758036
O        0.08975606      -1.24007371      -0.62497748
C        0.75515490      -0.58719725       0.46038451
C        1.53413242       0.92866762       0.49186079
C        2.04590836       0.29947638      -0.45348906
H       -0.76571076       1.30530101      -0.81950584
H       -1.72186525       1.30909089       0.66792439
H       -2.30300684       0.41974883      -0.75035715
H       -1.27011142      -1.16354600       0.97122099
H        1.17444595      -1.26789378       1.19078223
H        2.57888615      -0.18489844      -1.24626324
12
Frame=2 idx=000351 GeodesicLength=0.08319410684593477 rxn_smarts="[C:1]([C@@:2]1([H:10])[O:3][C@:4]1([C:5]#[C:6][H:12])[H:11])([H:7])([H:8])[H:9]>>[C:1]([C@@:2]1([H:10])[O:3][C@:4]1([C:6](=[C:5])[H:12])[H:11])([H:7])([H:8])[H:9]"
C       -1.41643196       0.70220808      -0.18400962
C       -0.70926820      -0.52225912       0.30128764
O        0.07559506      -1.24874526      -0.62368901
C        0.75102759      -0.59398492       0.45332035
C        1.53833583       0.92770558       0.48738794
C        2.03908990       0.30639921      -0.46750299
H       -0.76992684       1.29863661      -0.82567866
H       -1.71677888       1.31564548       0.66714245
H       -2.31078232       0.42021271      -0.74197327
H       -1.27437631      -1.15856148       0.98132551
H        1.17120421      -1.27690721       1.18190866
H        2.62231193      -0.17034968      -1.22951900
12
Frame=3 idx=000351 GeodesicLength=0.12434987461513852 rxn_smarts="[C:1]([C@@:2]1([H:10])[O:3][C@:4]1([C:5]#[C:6][H:12])[H:11])([H:7])([H:8])[H:9]>>[C:1]([C@@:2]1([H:10])[O:3][C@:4]1([C:6](=[C:5])[H:12])[H:11])([H:7])([H:8])[H:9]"
C       -1.41898487       0.70175519      -0.18312790
C       -0.71438398      -0.52330326       0.30520159
O        0.06090328      -1.25812231      -0.62177623
C        0.74679519      -0.60141453       0.44632079
C        1.54299656       0.92579586       0.48254916
C        2.03272112       0.31183832      -0.48124060
H       -0.77355709       1.29130184      -0.83222719
H       -1.71099598       1.32242094       0.66569572
H       -2.31818271       0.42076928      -0.73370708
H       -1.27875476      -1.15300049       0.99185399
H        1.16744909      -1.28628407       1.17349207
H        2.66399413      -0.15175677      -1.21303432
12
Frame=4 idx=000351 GeodesicLength=0.16573337330625665 rxn_smarts="[C:1]([C@@:2]1([H:10])[O:3][C@:4]1([C:5]#[C:6][H:12])[H:11])([H:7])([H:8])[H:9]>>[C:1]([C@@:2]1([H:10])[O:3][C@:4]1([C:6](=[C:5])[H:12])[H:11])([H:7])([H:8])[H:9]"
C       -1.42118118       0.70134316      -0.18253375
C       -0.71948879      -0.52446630       0.30937384
O        0.04588567      -1.26837176      -0.61934801
C        0.74247157      -0.60956973       0.43949879
C        1.54799501       0.92319003       0.47748031
C        2.02697981       0.31592927      -0.49469771
H       -0.77662701       1.28360623      -0.83923853
H       -1.70478534       1.32960467       0.66373005
H       -2.32519411       0.42151036      -0.72572199
H       -1.28328488      -1.14713588       1.00294235
H        1.16317254      -1.29625951       1.16578267
H        2.70405673      -0.12938054      -1.19726801
12
Frame=5 idx=000351 GeodesicLength=0.20642617713734993 rxn_smarts="[C:1]([C@@:2]1([H:10])[O:3][C@:4]1([C:5]#[C:6][H:12])[H:11])([H:7])([H:8])[H:9]>>[C:1]([C@@:2]1([H:10])[O:3][C@:4]1([C:6](=[C:5])[H:12])[H:11])([H:7])([H:8])[H:9]"
C       -1.42310496       0.70082295      -0.18203296
C       -0.72452881      -0.52552208       0.31361767
O        0.03029874      -1.27888747      -0.61651831
C        0.73805862      -0.61803734       0.43249808
C        1.55338844       0.91992333       0.47166049
C        2.02175843       0.31878479      -0.50811095
H       -0.77939621       1.27549048      -0.84619717
H       -1.69817584       1.33662090       0.66138833
H       -2.33192067       0.42229688      -0.71777892
H       -1.28769196      -1.14076174       1.01413947
H        1.15858245      -1.30623687       1.15812137
H        2.74273176      -0.10449384      -1.18078711
12
Frame=6 idx=000351 GeodesicLength=0.24716472578938645 rxn_smarts="[C:1]([C@@:2]1([H:10])[O:3][C@:4]1([C:5]#[C:6][H:12])[H:11])([H:7])([H:8])[H:9]>>[C:1]([C@@:2]1([H:10])[O:3][C@:4]1([C:6](=[C:5])[H:12])[H:11])([H:7])([H:8])[H:9]"
C       -1.42440683       0.70031069      -0.18198332
C       -0.72947057      -0.52668967       0.31813523
O        0.01466840      -1.29024810      -0.61288016
C        0.73358157      -0.62729454       0.42611779
C        1.55916756       0.91583922       0.46635241
C        2.01764690       0.32013350      -0.52025060
H       -0.78110159       1.26699081      -0.85347167
H       -1.69117476       1.34391205       0.65826772
H       -2.33780016       0.42327966      -0.71062149
H       -1.29237653      -1.13405438       1.02567666
H        1.15323712      -1.31684665       1.15174575
H        2.77802890      -0.07533258      -1.16708831
12
Frame=7 idx=000351 GeodesicLength=0.28759523217738103 rxn_smarts="[C:1]([C@@:2]1([H:10])[O:3][C@:4]1([C:5]#[C:6][H:12])[H:11])([H:7])([H:8])[H:9]>>[C:1]([C@@:2]1([H:10])[O:3][C@:4]1([C:6](=[C:5])[H:12])[H:11])([H:7])([H:8])[H:9]"
C       -1.42528884       0.69975636      -0.18218944
C       -0.73430023      -0.52784207       0.32277710
O       -0.00118503      -1.30202647      -0.60871037
C        0.72904212      -0.63702039       0.41996788
C        1.56526517       0.91113726       0.46104754
C        2.01441061       0.32029021      -0.53164113
H       -0.78217081       1.25816806      -0.86081047
H       -1.68384204       1.35119183       0.65464083
H       -2.34312699       0.42438059      -0.70389957
H       -1.29707907      -1.12698824       1.03732429
H        1.14741454      -1.32771669       1.14601062
H        2.81086058      -0.04333047      -1.15451726
12
Frame=8 idx=000351 GeodesicLength=0.32797242781186237 rxn_smarts="[C:1]([C@@:2]1([H:10])[O:3][C@:4]1([C:5]#[C:6][H:12])[H:11])([H:7])([H:8])[H:9]>>[C:1]([C@@:2]1([H:10])[O:3][C@:4]1([C:6](=[C:5])[H:12])[H:11])([H:7])([H:8])[H:9]"
C       -1.42560780       0.69919016      -0.18280684
C       -0.73903257      -0.52905518       0.32760857
O       -0.01708046      -1.31441027      -0.60382904
C        0.72444496      -0.64743286       0.41438815
C        1.57170840       0.90564007       0.45640959
C        2.01222742       0.31916860      -0.54172641
H       -0.78228982       1.24894043      -0.86838972
H       -1.67609025       1.35864368       0.65029583
H       -2.34772768       0.42569518      -0.69788478
H       -1.30200342      -1.11955634       1.04915012
H        1.14094525      -1.33913924       1.14137782
H        2.84050598      -0.00768424      -1.14459330
12
Frame=9 idx=000351 GeodesicLength=0.3680732441039561 rxn_smarts="[C:1]([C@@:2]1([H:10])[O:3][C@:4]1([C:5]#[C:6][H:12])[H:11])([H:7])([H:8])[H:9]>>[C:1]([C@@:2]1([H:10])[O:3][C@:4]1([C:6](=[C:5])[H:12])[H:11])([H:7])([H:8])[H:9]"
C       -1.42547328       0.69857786      -0.18364665
C       -0.74362299      -0.53024596       0.33251759
O       -0.03312480      -1.32708625      -0.59844303
C        0.71976575      -0.65821742       0.40904632
C        1.57841417       0.89967357       0.45187191
C        2.01093773       0.31706960      -0.55099838
H       -0.78172657       1.23948645      -0.87589822
H       -1.66805719       1.36599050       0.64549671
H       -2.35167610       0.42709299      -0.69234150
H       -1.30691321      -1.11184789       1.06094689
H        1.13399547      -1.35074551       1.13731718
H        2.86748102       0.03025206      -1.13586882
12
Frame=10 idx=000351 GeodesicLength=0.4080245256008405 rxn_smarts="[C:1]([C@@:2]1([H:10])[O:3][C@:4]1([C:5]#[C:6][H:12])[H:11])([H:7])([H:8])[H:9]>>[C:1]([C@@:2]1([H:10])[O:3][C@:4]1([C:6](=[C:5])[H:12])[H:11])([H:7])([H:8])[H:9]"
C       -1.42483722       0.69796022      -0.18482305
C       -0.74808507      -0.53144728       0.33754829
O       -0.04916441      -1.34014176      -0.59246607
C        0.71504989      -0.66952399       0.40420838
C        1.58545939       0.89306159       0.44797143
C        2.01069454       0.31391685      -0.55906565
H       -0.78029891       1.22980028      -0.88342960
H       -1.65980177       1.37332788       0.64014297
H       -2.35490041       0.42868002      -0.68755545
H       -1.31195500      -1.10384416       1.07275554
H        1.12652734      -1.36274757       1.13419151
H        2.89131163       0.07095793      -1.12947830
12
Frame=11 idx=000351 GeodesicLength=0.4478419725654054 rxn_smarts="[C:1]([C@@:2]1([H:10])[O:3][C@:4]1([C:5]#[C:6][H:12])[H:11])([H:7])([H:8])[H:9]>>[C:1]([C@@:2]1([H:10])[O:3][C@:4]1([C:6](=[C:5])[H:12])[H:11])([H:7])([H:8])[H:9]"
C       -1.42370822       0.69733334      -0.18631455
C       -0.75241268      -0.53265377       0.34266795
O       -0.06521748      -1.35351948      -0.58595334
C        0.71029504      -0.68131803       0.39980809
C        1.59282231       0.88584884       0.44467216
C        2.01146666       0.30980578      -0.56600772
H       -0.77804892       1.21987998      -0.89098604
H       -1.65126885       1.38064693       0.63426834
H       -2.35744620       0.43044987      -0.68343895
H       -1.31709147      -1.09555815       1.08453937
H        1.11857666      -1.37511856       1.13188374
H        2.91203315       0.11420325      -1.12513907
12
Frame=12 idx=000351 GeodesicLength=0.4874672094624119 rxn_smarts="[C:1]([C@@:2]1([H:10])[O:3][C@:4]1([C:5]#[C:6][H:12])[H:11])([H:7])([H:8])[H:9]>>[C:1]([C@@:2]1([H:10])[O:3][C@:4]1([C:6](=[C:5])[H:12])[H:11])([H:7])([H:8])[H:9]"
C       -1.42195118       0.69667284      -0.18815545
C       -0.75658558      -0.53387156       0.34786271
O       -0.08128881      -1.36722661      -0.57884471
C        0.70546969      -0.69362797       0.39591623
C        1.60053766       0.87796207       0.44215731
C        2.01324512       0.30471333      -0.57164688
H       -0.77479848       1.20966973      -0.89854103
H       -1.64230920       1.38793352       0.62779857
H       -2.35915029       0.43239245      -0.68006402
H       -1.32234661      -1.08695813       1.09623011
H        1.11003933      -1.38787499       1.13044805
H        2.92913835       0.16021531      -1.12316088
12
Frame=13 idx=000351 GeodesicLength=0.5269523979613808 rxn_smarts="[C:1]([C@@:2]1([H:10])[O:3][C@:4]1([C:5]#[C:6][H:12])[H:11])([H:7])([H:8])[H:9]>>[C:1]([C@@:2]1([H:10])[O:3][C@:4]1([C:6](=[C:5])[H:12])[H:11])([H:7])([H:8])[H:9]"
C       -1.41956609       0.69599518      -0.19035893
C       -0.76059696      -0.53510377       0.35311660
O       -0.09735279      -1.38124712      -0.57118253
C        0.70060061      -0.70647264       0.39253134
C        1.60862278       0.86938288       0.44049139
C        2.01608830       0.29865669      -0.57597403
H       -0.77054334       1.19917215      -0.90613306
H       -1.63289553       1.39521390       0.62074502
H       -2.36004240       0.43454636      -0.67743568
H       -1.32771673      -1.07804450       1.10782439
H        1.10096032      -1.40106008       1.12987410
H        2.94244183       0.20896095      -1.12349861
12
Frame=14 idx=000351 GeodesicLength=0.5663160016269106 rxn_smarts="[C:1]([C@@:2]1([H:10])[O:3][C@:4]1([C:5]#[C:6][H:12])[H:11])([H:7])([H:8])[H:9]>>[C:1]([C@@:2]1([H:10])[O:3][C@:4]1([C:6](=[C:5])[H:12])[H:11])([H:7])([H:8])[H:9]"
C       -1.41651935       0.69530793      -0.19293941
C       -0.76442503      -0.53634909       0.35840726
O       -0.11338732      -1.39555818      -0.56299715
C        0.69571084      -0.71986136       0.38964835
C        1.61709434       0.86009589       0.43973553
C        2.02005873       0.29165157      -0.57895370
H       -0.76524230       1.18838374      -0.91377763
H       -1.62297240       1.40249510       0.61310411
H       -2.36010256       0.43693817      -0.67556779
H       -1.33318174      -1.06880962       1.11929881
H        1.09136693      -1.41469778       1.13013989
H        2.95159985       0.26040363      -1.12609826
12
Frame=15 idx=000351 GeodesicLength=0.605576988148646 rxn_smarts="[C:1]([C@@:2]1([H:10])[O:3][C@:4]1([C:5]#[C:6][H:12])[H:11])([H:7])([H:8])[H:9]>>[C:1]([C@@:2]1([H:10])[O:3][C@:4]1([C:6](=[C:5])[H:12])[H:11])([H:7])([H:8])[H:9]"
C       -1.41267196       0.69461325      -0.19595485
C       -0.76803835      -0.53761717       0.36371928
O       -0.12936404      -1.41018786      -0.55425546
C        0.69081151      -0.73386402       0.38734479
C        1.62601978       0.84999008       0.44010022
C        2.02526360       0.28362100      -0.58038334
H       -0.75869712       1.17725453      -0.92150041
H       -1.61237821       1.40980544       0.60479441
H       -2.35918592       0.43961038      -0.67455646
H       -1.33877117      -1.05921559       1.13060760
H        1.08119814      -1.42886902       1.13132752
H        2.95581374       0.31485898      -1.13124330
12
Frame=16 idx=000351 GeodesicLength=0.6447770576005255 rxn_smarts="[C:1]([C@@:2]1([H:10])[O:3][C@:4]1([C:5]#[C:6][H:12])[H:11])([H:7])([H:8])[H:9]>>[C:1]([C@@:2]1([H:10])[O:3][C@:4]1([C:6](=[C:5])[H:12])[H:11])([H:7])([H:8])[H:9]"
C       -1.40777282       0.69392456      -0.19951468
C       -0.77138642      -0.53892759       0.36904485
O       -0.14521675      -1.42521205      -0.54486842
C        0.68592008      -0.74862482       0.38580252
C        1.63553488       0.83883851       0.44196559
C        2.03191716       0.27435634      -0.57986802
H       -0.75052670       1.16571882      -0.92932902
H       -1.60087541       1.41719571       0.59566374
H       -2.35700224       0.44265276      -0.67462893
H       -1.34456830      -1.04920602       1.14167580
H        1.07031516      -1.44373850       1.13365905
H        2.95366136       0.37302228      -1.13960248
