13
Frame=0 idx=003788 GeodesicLength=0.0 rxn_smarts="[C:1]([N:2]1[C:3]([H:10])([H:11])[C@:4]1([C:5]#[C:6][H:13])[H:12])([H:7])([H:8])[H:9]>>[C:1]([N:2]([C:3]([C-:4]=[C:5]=[C+:6][H:13])([H:10])[H:11])[H:12])([H:7])([H:8])[H:9]"
C       -1.90009984      -0.60436282       0.05000325
N       -0.50399781      -0.42990595       0.48088381
C       -0.12736661       0.98226522       0.41752836
C        0.60134456       0.40505058      -0.74897954
C        1.94661727       0.04261203      -0.44781678
C        3.11334963      -0.21773109      -0.30893339
H       -2.10618140      -1.66596278      -0.08365212
H       -2.12487780      -0.06756194      -0.87846107
H       -2.53698672      -0.21569985       0.84622219
H       -0.94506195       1.66630487       0.19913946
H        0.46795334       1.29042480       1.27194426
H       -0.03024929      -0.73673142      -0.60674742
H        4.14555662      -0.44870169      -0.19113096
13
Frame=1 idx=003788 GeodesicLength=0.057408191435974476 rxn_smarts="[C:1]([N:2]1[C:3]([H:10])([H:11])[C@:4]1([C:5]#[C:6][H:13])[H:12])([H:7])([H:8])[H:9]>>[C:1]([N:2]([C:3]([C-:4]=[C:5]=[C+:6][H:13])([H:10])[H:11])[H:12])([H:7])([H:8])[H:9]"
C       -1.91221805      -0.59727041       0.04505030
N       -0.52065300      -0.43149290       0.48923338
C       -0.12871112       0.97494829       0.42764167
C        0.61299940       0.38671305      -0.72241630
C        1.95738095       0.03431575      -0.43522191
C        3.12369652      -0.24014974      -0.29086525
H       -2.12701994      -1.65850011      -0.07776358
H       -2.11825727      -0.07121405      -0.89416855
H       -2.55792313      -0.19367695       0.82657832
H       -0.93086547       1.67055224       0.18908453
H        0.45629338       1.28165496       1.28979421
H       -0.03161321      -0.76273391      -0.59458563
H        4.17689092      -0.39314621      -0.25236120
13
Frame=2 idx=003788 GeodesicLength=0.11563145317560147 rxn_smarts="[C:1]([N:2]1[C:3]([H:10])([H:11])[C@:4]1([C:5]#[C:6][H:13])[H:12])([H:7])([H:8])[H:9]>>[C:1]([N:2]([C:3]([C-:4]=[C:5]=[C+:6][H:13])([H:10])[H:11])[H:12])([H:7])([H:8])[H:9]"
C       -1.92506941      -0.58896031       0.03979194
N       -0.53835942      -0.43411844       0.49841541
C       -0.12843099       0.96561529       0.43843429
C        0.62483174       0.36446293      -0.69464008
C        1.96810742       0.02095256      -0.42233823
C        3.13833044      -0.25654808      -0.28621099
H       -2.15076028      -1.64922332      -0.07172965
H       -2.11048847      -0.07433285      -0.91031144
H       -2.57915029      -0.16855310       0.80529994
H       -0.91301668       1.67385922       0.17947822
H        0.44647273       1.27009150       1.30825892
H       -0.03380865      -0.79196464      -0.58019016
H        4.20134187      -0.33128075      -0.30425817
13
Frame=3 idx=003788 GeodesicLength=0.17379740390436038 rxn_smarts="[C:1]([N:2]1[C:3]([H:10])([H:11])[C@:4]1([C:5]#[C:6][H:13])[H:12])([H:7])([H:8])[H:9]>>[C:1]([N:2]([C:3]([C-:4]=[C:5]=[C+:6][H:13])([H:10])[H:11])[H:12])([H:7])([H:8])[H:9]"
C       -1.93723416      -0.58051809       0.03497579
N       -0.55515586      -0.43700420       0.50675481
C       -0.12708438       0.95574191       0.44882096
C        0.63605288       0.34178069      -0.66798242
C        1.97868590       0.00733280      -0.41347526
C        3.15345294      -0.27119930      -0.28679206
H       -2.17439050      -1.63942341      -0.06555813
H       -2.10284934      -0.07731433      -0.92516658
H       -2.59831812      -0.14346985       0.78496484
H       -0.89358265       1.67651571       0.17092989
H        0.43869679       1.25759947       1.32563556
H       -0.03666940      -0.82158825      -0.56669108
H        4.21839589      -0.26845315      -0.34641631
13
Frame=4 idx=003788 GeodesicLength=0.2322111625210231 rxn_smarts="[C:1]([N:2]1[C:3]([H:10])([H:11])[C@:4]1([C:5]#[C:6][H:13])[H:12])([H:7])([H:8])[H:9]>>[C:1]([N:2]([C:3]([C-:4]=[C:5]=[C+:6][H:13])([H:10])[H:11])[H:12])([H:7])([H:8])[H:9]"
C       -1.94878305      -0.57212008       0.02979168
N       -0.57188301      -0.43956752       0.51551529
C       -0.12579508       0.94597100       0.45965564
C        0.64726188       0.31875611      -0.64012919
C        1.98946274      -0.00558270      -0.40435347
C        3.16987330      -0.28238233      -0.29191635
H       -2.19750416      -1.62941209      -0.05965616
H       -2.09410731      -0.08109644      -0.94020342
H       -2.61684008      -0.11823417       0.76339631
H       -0.87357219       1.67872554       0.16270009
H        0.43044404       1.24560562       1.34343396
H       -0.03923075      -0.85174458      -0.55169916
H        4.23067368      -0.20891836      -0.38653521
13
Frame=5 idx=003788 GeodesicLength=0.29048053932191414 rxn_smarts="[C:1]([N:2]1[C:3]([H:10])([H:11])[C@:4]1([C:5]#[C:6][H:13])[H:12])([H:7])([H:8])[H:9]>>[C:1]([N:2]([C:3]([C-:4]=[C:5]=[C+:6][H:13])([H:10])[H:11])[H:12])([H:7])([H:8])[H:9]"
C       -1.95973478      -0.56376850       0.02512864
N       -0.58781736      -0.44217954       0.52357307
C       -0.12394063       0.93597739       0.47008864
C        0.65759973       0.29575219      -0.61337520
C        1.99983869      -0.01759208      -0.39964946
C        3.18608990      -0.29135943      -0.30217831
H       -2.22032337      -1.61911532      -0.05338426
H       -2.08568354      -0.08510088      -0.95401730
H       -2.63359511      -0.09326198       0.74275539
H       -0.85271839       1.68039030       0.15538354
H        0.42366900       1.23315722       1.36018925
H       -0.04242705      -0.88205228      -0.53742078
H        4.23904291      -0.15084709      -0.41709322
13
Frame=6 idx=003788 GeodesicLength=0.348557450778156 rxn_smarts="[C:1]([N:2]1[C:3]([H:10])([H:11])[C@:4]1([C:5]#[C:6][H:13])[H:12])([H:7])([H:8])[H:9]>>[C:1]([N:2]([C:3]([C-:4]=[C:5]=[C+:6][H:13])([H:10])[H:11])[H:12])([H:7])([H:8])[H:9]"
C       -1.96983801      -0.55573717       0.02078282
N       -0.60286227      -0.44448163       0.53110302
C       -0.12200525       0.92633130       0.48025646
C        0.66737804       0.27352222      -0.58717729
C        2.00998075      -0.02747599      -0.39829440
C        3.20162832      -0.29933300      -0.31552008
H       -2.24200340      -1.60894554      -0.04707904
H       -2.07735924      -0.08955387      -0.96685167
H       -2.64875280      -0.06926052       0.72280409
H       -0.83182319       1.68171641       0.14876822
H        0.41740473       1.22122193       1.37623501
H       -0.04576277      -0.91191850      -0.52363795
H        4.24401509      -0.09608562      -0.44138921
13
Frame=7 idx=003788 GeodesicLength=0.40684122322697946 rxn_smarts="[C:1]([N:2]1[C:3]([H:10])([H:11])[C@:4]1([C:5]#[C:6][H:13])[H:12])([H:7])([H:8])[H:9]>>[C:1]([N:2]([C:3]([C-:4]=[C:5]=[C+:6][H:13])([H:10])[H:11])[H:12])([H:7])([H:8])[H:9]"
C       -1.97903253      -0.54813476       0.01502708
N       -0.61837671      -0.44578709       0.54001744
C       -0.12139024       0.91775772       0.49205992
C        0.67784520       0.25203955      -0.55716541
C        2.02073423      -0.03441815      -0.39263546
C        3.21767687      -0.30539131      -0.32991617
H       -2.26210391      -1.59915507      -0.04203121
H       -2.06635822      -0.09575761      -0.98128605
H       -2.66435857      -0.04557530       0.69923521
H       -0.81167777       1.68300024       0.14237704
H        0.40788280       1.21136942       1.39460921
H       -0.04758435      -0.94166408      -0.50636622
H        4.24674319      -0.04828356      -0.47392537
13
Frame=8 idx=003788 GeodesicLength=0.46528441256684366 rxn_smarts="[C:1]([N:2]1[C:3]([H:10])([H:11])[C@:4]1([C:5]#[C:6][H:13])[H:12])([H:7])([H:8])[H:9]>>[C:1]([N:2]([C:3]([C-:4]=[C:5]=[C+:6][H:13])([H:10])[H:11])[H:12])([H:7])([H:8])[H:9]"
C       -1.98746539      -0.54079021       0.00753692
N       -0.63473170      -0.44629619       0.55041028
C       -0.12207250       0.90993983       0.50576871
C        0.68903873       0.23075117      -0.52272784
C        2.03208146      -0.03905157      -0.38219880
C        3.23433315      -0.30813346      -0.34324266
H       -2.28126017      -1.58945222      -0.03853276
H       -2.05229023      -0.10362825      -0.99755068
H       -2.68049718      -0.02174919       0.67134522
H       -0.79178469       1.68414954       0.13630611
H        0.39500134       1.20313393       1.41562668
H       -0.04802573      -0.97175417      -0.48504349
H        4.24767291      -0.00711922      -0.51769768
13
Frame=9 idx=003788 GeodesicLength=0.5236173613725931 rxn_smarts="[C:1]([N:2]1[C:3]([H:10])([H:11])[C@:4]1([C:5]#[C:6][H:13])[H:12])([H:7])([H:8])[H:9]>>[C:1]([N:2]([C:3]([C-:4]=[C:5]=[C+:6][H:13])([H:10])[H:11])[H:12])([H:7])([H:8])[H:9]"
C       -1.99585066      -0.53283972       0.00028467
N       -0.65114210      -0.44710158       0.56063257
C       -0.12177814       0.90119689       0.51912504
C        0.69976784       0.20746257      -0.48837868
C        2.04274493      -0.04547981      -0.37546315
C        3.25053511      -0.30953954      -0.36111518
H       -2.30172053      -1.57852878      -0.03444298
H       -2.03804822      -0.11163776      -1.01308781
H       -2.69528508       0.00349354       0.64328057
H       -0.76974178       1.68446366       0.13041091
H        0.38383607       1.19376721       1.43573491
H       -0.04978371      -1.00343721      -0.46301780
H        4.24646628       0.03818053      -0.55396306
13
Frame=10 idx=003788 GeodesicLength=0.582167699254869 rxn_smarts="[C:1]([N:2]1[C:3]([H:10])([H:11])[C@:4]1([C:5]#[C:6][H:13])[H:12])([H:7])([H:8])[H:9]>>[C:1]([N:2]([C:3]([C-:4]=[C:5]=[C+:6][H:13])([H:10])[H:11])[H:12])([H:7])([H:8])[H:9]"
C       -2.00431861      -0.52380892      -0.00743452
N       -0.66844076      -0.44809147       0.57164503
C       -0.12043279       0.89121285       0.53282580
C        0.71064904       0.18072246      -0.45211135
C        2.05294764      -0.05575644      -0.36938803
C        3.26677244      -0.30969182      -0.38593568
H       -2.32416380      -1.56568481      -0.03018315
H       -2.02228463      -0.12011583      -1.02891752
H       -2.70929927       0.03149401       0.61298220
H       -0.74463588       1.68365895       0.12428014
H        0.37364373       1.18322736       1.45602104
H       -0.05286128      -1.03779838      -0.43803557
H        4.24242417       0.09063204      -0.58574837
13
Frame=11 idx=003788 GeodesicLength=0.6409120900486268 rxn_smarts="[C:1]([N:2]1[C:3]([H:10])([H:11])[C@:4]1([C:5]#[C:6][H:13])[H:12])([H:7])([H:8])[H:9]>>[C:1]([N:2]([C:3]([C-:4]=[C:5]=[C+:6][H:13])([H:10])[H:11])[H:12])([H:7])([H:8])[H:9]"
C       -2.01182607      -0.51453119      -0.01740098
N       -0.68699806      -0.44843308       0.58439397
C       -0.11988545       0.88137961       0.54896295
C        0.72247820       0.15283868      -0.41001014
C        2.06357808      -0.06562957      -0.35815463
C        3.28274429      -0.30721703      -0.41195213
H       -2.34642652      -1.55200236      -0.02805575
H       -2.00230854      -0.13023155      -1.04674328
H       -2.72317742       0.06072478       0.57699656
H       -0.71827152       1.68228090       0.11878336
H        0.36034333       1.17356036       1.47952757
H       -0.05516397      -1.07337624      -0.40766559
H        4.23491364       0.14063669      -0.62868190
13
Frame=12 idx=003788 GeodesicLength=0.699738365720265 rxn_smarts="[C:1]([N:2]1[C:3]([H:10])([H:11])[C@:4]1([C:5]#[C:6][H:13])[H:12])([H:7])([H:8])[H:9]>>[C:1]([N:2]([C:3]([C-:4]=[C:5]=[C+:6][H:13])([H:10])[H:11])[H:12])([H:7])([H:8])[H:9]"
C       -2.01807600      -0.50497708      -0.02942635
N       -0.70654229      -0.44812407       0.59859367
C       -0.11983848       0.87165475       0.56730130
C        0.73508998       0.12375921      -0.36231656
C        2.07436706      -0.07529274      -0.34324960
C        3.29746088      -0.30295874      -0.44030548
H       -2.36833309      -1.53736668      -0.02808654
H       -1.97810686      -0.14189506      -1.06600810
H       -2.73612527       0.09104278       0.53571789
H       -0.69027478       1.68023001       0.11405843
H        0.34448686       1.16471475       1.50577632
H       -0.05706745      -1.11009285      -0.37219240
H        4.22295945       0.18930571      -0.67986258
13
Frame=13 idx=003788 GeodesicLength=0.758506083270384 rxn_smarts="[C:1]([N:2]1[C:3]([H:10])([H:11])[C@:4]1([C:5]#[C:6][H:13])[H:12])([H:7])([H:8])[H:9]>>[C:1]([N:2]([C:3]([C-:4]=[C:5]=[C+:6][H:13])([H:10])[H:11])[H:12])([H:7])([H:8])[H:9]"
C       -2.02269189      -0.49530370      -0.04326142
N       -0.72666617      -0.44713537       0.61387773
C       -0.12017092       0.86216040       0.58762929
C        0.74822344       0.09391575      -0.30942735
C        2.08487908      -0.08396254      -0.32683370
C        3.30976053      -0.29748759      -0.47162022
H       -2.38946624      -1.52190363      -0.03015675
H       -1.94975132      -0.15521169      -1.08611909
H       -2.74732326       0.12203600       0.48965346
H       -0.66066757       1.67751405       0.11040636
H        0.32650588       1.15676702       1.53430622
H       -0.05877599      -1.14755745      -0.33216493
H        4.20614445       0.23616874      -0.73628959
13
Frame=14 idx=003788 GeodesicLength=0.8171125265984893 rxn_smarts="[C:1]([N:2]1[C:3]([H:10])([H:11])[C@:4]1([C:5]#[C:6][H:13])[H:12])([H:7])([H:8])[H:9]>>[C:1]([N:2]([C:3]([C-:4]=[C:5]=[C+:6][H:13])([H:10])[H:11])[H:12])([H:7])([H:8])[H:9]"
C       -2.02582806      -0.48504146      -0.05802784
N       -0.74705842      -0.44566896       0.62980260
C       -0.11972351       0.85224685       0.60865924
C        0.76165043       0.06172104      -0.25274023
C        2.09424023      -0.09465378      -0.31258349
C        3.31887769      -0.29102053      -0.50854728
H       -2.41059348      -1.50486444      -0.03327167
H       -1.91827969      -0.16973066      -1.10595648
H       -2.75578202       0.15438022       0.44045163
H       -0.62806332       1.67355997       0.10688927
H        0.30852953       1.14919238       1.56324954
H       -0.06173241      -1.18657363      -0.28837820
H        4.18376304       0.28645301      -0.78954709
13
Frame=15 idx=003788 GeodesicLength=0.8754790194025643 rxn_smarts="[C:1]([N:2]1[C:3]([H:10])([H:11])[C@:4]1([C:5]#[C:6][H:13])[H:12])([H:7])([H:8])[H:9]>>[C:1]([N:2]([C:3]([C-:4]=[C:5]=[C+:6][H:13])([H:10])[H:11])[H:12])([H:7])([H:8])[H:9]"
C       -2.02663651      -0.47508904      -0.07411987
N       -0.76730627      -0.44336036       0.64635014
C       -0.11965310       0.84299714       0.63138785
C        0.77529655       0.02978303      -0.19109614
C        2.10186747      -0.10244122      -0.30126481
C        3.32289163      -0.28451055      -0.55133902
H       -2.42988655      -1.48746128      -0.03829266
H       -1.88282335      -0.18606454      -1.12556235
H       -2.76125097       0.18624072       0.38755041
H       -0.59427041       1.66901879       0.10486762
H        0.28875305       1.14312154       1.59382257
H       -0.06471044      -1.22538094      -0.24093050
H        4.15772889       0.33314670      -0.84137323
13
Frame=16 idx=003788 GeodesicLength=0.9337761052115241 rxn_smarts="[C:1]([N:2]1[C:3]([H:10])([H:11])[C@:4]1([C:5]#[C:6][H:13])[H:12])([H:7])([H:8])[H:9]>>[C:1]([N:2]([C:3]([C-:4]=[C:5]=[C+:6][H:13])([H:10])[H:11])[H:12])([H:7])([H:8])[H:9]"
C       -2.02471749      -0.46471141      -0.09218332
N       -0.78798452      -0.44017023       0.66411446
C       -0.11916079       0.83373293       0.65613085
C        0.78974767      -0.00418416      -0.12220646
C        2.10695243      -0.11122695      -0.29236041
C        3.32127916      -0.27682127      -0.59988024
H       -2.44785777      -1.46856427      -0.04611462
H       -1.84165761      -0.20405367      -1.14522805
H       -2.76301452       0.21899167       0.32924675
H       -0.55718059       1.66318288       0.10385751
H        0.26732912       1.13828508       1.62637862
H       -0.06853677      -1.26531654      -0.18771159
H        4.12480169       0.38085592      -0.89404350
