16
Frame=0 idx=003538 GeodesicLength=0.0 rxn_smarts="[C:1]([C:2]([C@@:3]1([H:12])[C:4]([H:13])([H:14])[C@:5]1([O:6][H:16])[H:15])([H:10])[H:11])([H:7])([H:8])[H:9]>>[C:1]([C:2]([C:3]1([H:12])[C:4]([H:13])=[C:5]1[H:15])([H:10])[H:11])([H:7])([H:8])[H:9].[O:6]([H:14])[H:16]"
C       -1.90031655       0.55898980       0.13820348
C       -0.95646198      -0.58143425      -0.22731672
C        0.30286455      -0.60856507       0.61641576
C        1.64311775      -1.04476740       0.08313186
C        1.45575345       0.30975736       0.43487933
O        1.49984240       1.02287044      -1.08229443
H       -1.42370044       1.53564027       0.00416797
H       -2.19976634       0.49698793       1.18693850
H       -2.80789447       0.54476636      -0.46809265
H       -1.46956574      -1.53937715      -0.10343862
H       -0.68972846      -0.54060510      -1.28877211
H        0.07256216      -0.76273782       1.67531002
H        2.32544259      -1.72355525       0.57454070
H        1.62779622      -0.03261894      -1.27687673
H        1.90061330       1.04651722       1.08703797
H        0.61944152       1.31813161      -1.35383428
16
Frame=1 idx=003538 GeodesicLength=0.07784519873145275 rxn_smarts="[C:1]([C:2]([C@@:3]1([H:12])[C:4]([H:13])([H:14])[C@:5]1([O:6][H:16])[H:15])([H:10])[H:11])([H:7])([H:8])[H:9]>>[C:1]([C:2]([C:3]1([H:12])[C:4]([H:13])=[C:5]1[H:15])([H:10])[H:11])([H:7])([H:8])[H:9].[O:6]([H:14])[H:16]"
C       -1.90273408       0.55743819       0.14043162
C       -0.95726878      -0.58185302      -0.22455898
C        0.29974364      -0.60862297       0.62210844
C        1.64065408      -1.04017690       0.08718790
C        1.45101596       0.31294080       0.43932147
O        1.50576447       1.02695817      -1.09711789
H       -1.42553436       1.53394055       0.00798308
H       -2.20451859       0.49383544       1.18839921
H       -2.80866527       0.54364329      -0.46831815
H       -1.47026931      -1.54032343      -0.10397981
H       -0.68796892      -0.53769636      -1.28512102
H        0.07002668      -0.76896279       1.67984596
H        2.32459870      -1.72372923       0.56930613
H        1.63527997      -0.04757144      -1.28165844
H        1.90152122       1.04698658       1.09044756
H        0.62835459       1.33319313      -1.36427709
16
Frame=2 idx=003538 GeodesicLength=0.1556643984463375 rxn_smarts="[C:1]([C:2]([C@@:3]1([H:12])[C:4]([H:13])([H:14])[C@:5]1([O:6][H:16])[H:15])([H:10])[H:11])([H:7])([H:8])[H:9]>>[C:1]([C:2]([C:3]1([H:12])[C:4]([H:13])=[C:5]1[H:15])([H:10])[H:11])([H:7])([H:8])[H:9].[O:6]([H:14])[H:16]"
C       -1.90518165       0.55585430       0.14270594
C       -0.95807568      -0.58226812      -0.22178659
C        0.29659984      -0.60870368       0.62784360
C        1.63818560      -1.03551571       0.09128665
C        1.44619528       0.31617826       0.44379355
O        1.51172178       1.03098919      -1.11226913
H       -1.42740922       1.53221586       0.01187405
H       -2.20930172       0.49060690       1.18989456
H       -2.80945415       0.54249502      -0.46850062
H       -1.47094327      -1.54127817      -0.10457994
H       -0.68618064      -0.53468101      -1.28142773
H        0.06748560      -0.77524296       1.68438485
H        2.32369162      -1.72381417       0.56400864
H        1.64283955      -0.06299002      -1.28638410
H        1.90230754       1.04752555       1.09383981
H        0.63751952       1.34862878      -1.37468354
16
Frame=3 idx=003538 GeodesicLength=0.23347274700598314 rxn_smarts="[C:1]([C:2]([C@@:3]1([H:12])[C:4]([H:13])([H:14])[C@:5]1([O:6][H:16])[H:15])([H:10])[H:11])([H:7])([H:8])[H:9]>>[C:1]([C:2]([C:3]1([H:12])[C:4]([H:13])=[C:5]1[H:15])([H:10])[H:11])([H:7])([H:8])[H:9].[O:6]([H:14])[H:16]"
C       -1.90765940       0.55423661       0.14502609
C       -0.95888204      -0.58268023      -0.21899977
C        0.29343406      -0.60880706       0.63362049
C        1.63571309      -1.03078128       0.09542682
C        1.44129130       0.31947039       0.44829681
O        1.51770110       1.03496212      -1.12776089
H       -1.42932639       1.53046529       0.01584123
H       -2.21411594       0.48730023       1.19142392
H       -2.81026088       0.54132002      -0.46864070
H       -1.47158564      -1.54224187      -0.10523862
H       -0.68436366      -0.53155990      -1.27769132
H        0.06494039      -0.78157893       1.68892526
H        2.32271598      -1.72380764       0.55864581
H        1.65047671      -0.07890088      -1.29104771
H        1.90297121       1.04814016       1.09721104
H        0.64695011       1.36446297      -1.38503845
16
Frame=4 idx=003538 GeodesicLength=0.3112847355270802 rxn_smarts="[C:1]([C:2]([C@@:3]1([H:12])[C:4]([H:13])([H:14])[C@:5]1([O:6][H:16])[H:15])([H:10])[H:11])([H:7])([H:8])[H:9]>>[C:1]([C:2]([C:3]1([H:12])[C:4]([H:13])=[C:5]1[H:15])([H:10])[H:11])([H:7])([H:8])[H:9].[O:6]([H:14])[H:16]"
C       -1.91016751       0.55258366       0.14739192
C       -0.95968729      -0.58308974      -0.21619898
C        0.29024731      -0.60893319       0.63943781
C        1.63323738      -1.02597029       0.09960602
C        1.43630335       0.32281847       0.45283315
O        1.52368830       1.03887393      -1.14360696
H       -1.43128735       1.52868778       0.01988484
H       -2.21896080       0.48391322       1.19298707
H       -2.81108568       0.54011658      -0.46873836
H       -1.47219436      -1.54321491      -0.10595616
H       -0.68251839      -0.52833325      -1.27391122
H        0.06239280      -0.78797264       1.69346502
H        2.32166700      -1.72370580       0.55321723
H        1.65819210      -0.09533369      -1.29564375
H        1.90351080       1.04883743       1.10055772
H        0.65666234       1.38072243      -1.39532535
16
Frame=5 idx=003538 GeodesicLength=0.38910720625438466 rxn_smarts="[C:1]([C:2]([C@@:3]1([H:12])[C:4]([H:13])([H:14])[C@:5]1([O:6][H:16])[H:15])([H:10])[H:11])([H:7])([H:8])[H:9]>>[C:1]([C:2]([C:3]1([H:12])[C:4]([H:13])=[C:5]1[H:15])([H:10])[H:11])([H:7])([H:8])[H:9].[O:6]([H:14])[H:16]"
C       -1.91270575       0.55089400       0.14980305
C       -0.96049079      -0.58349750      -0.21338467
C        0.28704078      -0.60908241       0.64529398
C        1.63075909      -1.02108067       0.10382180
C        1.43123180       0.32622246       0.45740328
O        1.52966651       1.04272515      -1.15982170
H       -1.43329279       1.52688210       0.02400469
H       -2.22383577       0.48044404       1.19458338
H       -2.81192823       0.53888323      -0.46879381
H       -1.47276774      -1.54419774      -0.10673235
H       -0.68064532      -0.52500229      -1.27008699
H        0.05984470      -0.79442522       1.69800174
H        2.32054013      -1.72350586       0.54772537
H        1.66598525      -0.11231397      -1.30016565
H        1.90392599       1.04962231       1.10387596
H        0.66667215       1.39743239      -1.40552806
16
Frame=6 idx=003538 GeodesicLength=0.4669544032851063 rxn_smarts="[C:1]([C:2]([C@@:3]1([H:12])[C:4]([H:13])([H:14])[C@:5]1([O:6][H:16])[H:15])([H:10])[H:11])([H:7])([H:8])[H:9]>>[C:1]([C:2]([C:3]1([H:12])[C:4]([H:13])=[C:5]1[H:15])([H:10])[H:11])([H:7])([H:8])[H:9].[O:6]([H:14])[H:16]"
C       -1.91527394       0.54916614       0.15225912
C       -0.96129205      -0.58390430      -0.21055725
C        0.28381557      -0.60925498       0.65118748
C        1.62827967      -1.01610758       0.10807115
C        1.42607558       0.32968418       0.46201010
O        1.53561910       1.04651633      -1.17641816
H       -1.43534355       1.52504711       0.02819960
H       -2.22873940       0.47689152       1.19621265
H       -2.81278884       0.53761808      -0.46880669
H       -1.47330383      -1.54519101      -0.10756670
H       -0.67874504      -0.52156839      -1.26621793
H        0.05729832      -0.80093963       1.70253300
H        2.31932995      -1.72320334       0.54216725
H        1.67385388      -0.12987327      -1.30460608
H        1.90421452       1.05050197       1.10716432
H        0.67700006       1.41461718      -1.41563184
16
Frame=7 idx=003538 GeodesicLength=0.5448317417719785 rxn_smarts="[C:1]([C:2]([C@@:3]1([H:12])[C:4]([H:13])([H:14])[C@:5]1([O:6][H:16])[H:15])([H:10])[H:11])([H:7])([H:8])[H:9]>>[C:1]([C:2]([C:3]1([H:12])[C:4]([H:13])=[C:5]1[H:15])([H:10])[H:11])([H:7])([H:8])[H:9].[O:6]([H:14])[H:16]"
C       -1.91787190       0.54739862       0.15475960
C       -0.96209083      -0.58431139      -0.20771734
C        0.28057299      -0.60945146       0.65711616
C        1.62580051      -1.01104812       0.11234970
C        1.42083409       0.33320442       0.46665510
O        1.54152246       1.05024780      -1.19341366
H       -1.43744008       1.52318130       0.03246760
H       -2.23366987       0.47325466       1.19787462
H       -2.81366801       0.53631915      -0.46877637
H       -1.47380136      -1.54619552      -0.10845855
H       -0.67681891      -0.51803369      -1.26230379
H        0.05475647      -0.80751924       1.70705558
H        2.31803115      -1.72279279       0.53654519
H        1.68179667      -0.14804124      -1.30895612
H        1.90437537       1.05148280       1.11041922
H        0.68767125       1.43230469      -1.42561693
16
Frame=8 idx=003538 GeodesicLength=0.6227332022775637 rxn_smarts="[C:1]([C:2]([C@@:3]1([H:12])[C:4]([H:13])([H:14])[C@:5]1([O:6][H:16])[H:15])([H:10])[H:11])([H:7])([H:8])[H:9]>>[C:1]([C:2]([C:3]1([H:12])[C:4]([H:13])=[C:5]1[H:15])([H:10])[H:11])([H:7])([H:8])[H:9].[O:6]([H:14])[H:16]"
C       -1.92049903       0.54559009       0.15730429
C       -0.96288685      -0.58471987      -0.20486538
C        0.27731418      -0.60967310       0.66307789
C        1.62332260      -1.00589715       0.11665307
C        1.41550594       0.33678459       0.47134149
O        1.54735655       1.05392021      -1.21082301
H       -1.43958224       1.52128320       0.03680718
H       -2.23862494       0.46953268       1.19956940
H       -2.81456590       0.53498468      -0.46870178
H       -1.47425906      -1.54721183      -0.10940744
H       -0.67486832      -0.51440016      -1.25834418
H        0.05222155      -0.81416849       1.71156597
H        2.31663964      -1.72226879       0.53086063
H        1.68980883      -0.16684534      -1.31320840
H        1.90440622       1.05257128       1.11363957
H        0.69871085       1.45051801      -1.43546929
16
Frame=9 idx=003538 GeodesicLength=0.700660247877684 rxn_smarts="[C:1]([C:2]([C@@:3]1([H:12])[C:4]([H:13])([H:14])[C@:5]1([O:6][H:16])[H:15])([H:10])[H:11])([H:7])([H:8])[H:9]>>[C:1]([C:2]([C:3]1([H:12])[C:4]([H:13])=[C:5]1[H:15])([H:10])[H:11])([H:7])([H:8])[H:9].[O:6]([H:14])[H:16]"
C       -1.92315459       0.54373928       0.15989273
C       -0.96367986      -0.58513133      -0.20200186
C        0.27404066      -0.60992105       0.66907035
C        1.62084754      -1.00064974       0.12097661
C        1.41008958       0.34042631       0.47607300
O        1.55309696       1.05753884      -1.22866123
H       -1.44176926       1.51935144       0.04121554
H       -2.24360202       0.46572570       1.20129699
H       -2.81548266       0.53361310      -0.46858179
H       -1.47467602      -1.54824102      -0.11041214
H       -0.67289484      -0.51067104      -1.25433869
H        0.04969648      -0.82089266       1.71606038
H        2.31515011      -1.72162412       0.52511273
H        1.69788515      -0.18631475      -1.31735297
H        1.90430494       1.05377336       1.11682491
H        0.71014782       1.46927768      -1.44517456
16
Frame=10 idx=003538 GeodesicLength=0.7786089082718295 rxn_smarts="[C:1]([C:2]([C@@:3]1([H:12])[C:4]([H:13])([H:14])[C@:5]1([O:6][H:16])[H:15])([H:10])[H:11])([H:7])([H:8])[H:9]>>[C:1]([C:2]([C:3]1([H:12])[C:4]([H:13])=[C:5]1[H:15])([H:10])[H:11])([H:7])([H:8])[H:9].[O:6]([H:14])[H:16]"
C       -1.92583796       0.54184492       0.16252476
C       -0.96447013      -0.58554727      -0.19912743
C        0.27075362      -0.61019727       0.67509055
C        1.61837685      -0.99530063       0.12531325
C        1.40458311       0.34413086       0.48085320
O        1.55871640       1.06110849      -1.24694548
H       -1.44400056       1.51738411       0.04568921
H       -2.24859712       0.46183405       1.20305815
H       -2.81641945       0.53220236      -0.46841419
H       -1.47505180      -1.54928378      -0.11147213
H       -0.67090081      -0.50684883      -1.25028731
H        0.04718467      -0.82769869       1.72053406
H        2.31355970      -1.72085089       0.51930694
H        1.70601793      -0.20647897      -1.32138139
H        1.90406878       1.05509533       1.11997506
H        0.72201678       1.48860623      -1.45471725
16
Frame=11 idx=003538 GeodesicLength=0.8565913606184541 rxn_smarts="[C:1]([C:2]([C@@:3]1([H:12])[C:4]([H:13])([H:14])[C@:5]1([O:6][H:16])[H:15])([H:10])[H:11])([H:7])([H:8])[H:9]>>[C:1]([C:2]([C:3]1([H:12])[C:4]([H:13])=[C:5]1[H:15])([H:10])[H:11])([H:7])([H:8])[H:9].[O:6]([H:14])[H:16]"
C       -1.92854836       0.53990578       0.16520022
C       -0.96525773      -0.58596870      -0.19624386
C        0.26745484      -0.61050304       0.68113378
C        1.61591212      -0.98984480       0.12965432
C        1.39898542       0.34789956       0.48568318
O        1.56418598       1.06464039      -1.26569214
H       -1.44627577       1.51537986       0.05022575
H       -2.25360619       0.45785728       1.20485358
H       -2.81737723       0.53075073      -0.46819652
H       -1.47538562      -1.55034065      -0.11258785
H       -0.66888869      -0.50293552      -1.24619118
H        0.04469079      -0.83459289       1.72498064
H        2.31186639      -1.71994168       0.51345421
H        1.71419975      -0.22737571      -1.32528105
H        1.90369624       1.05654155       1.12308842
H        0.73434806       1.50852786      -1.46408149
16
Frame=12 idx=003538 GeodesicLength=0.9345915544805827 rxn_smarts="[C:1]([C:2]([C@@:3]1([H:12])[C:4]([H:13])([H:14])[C@:5]1([O:6][H:16])[H:15])([H:10])[H:11])([H:7])([H:8])[H:9]>>[C:1]([C:2]([C:3]1([H:12])[C:4]([H:13])=[C:5]1[H:15])([H:10])[H:11])([H:7])([H:8])[H:9].[O:6]([H:14])[H:16]"
C       -1.93128486       0.53792078       0.16791904
C       -0.96604322      -0.58639768      -0.19335163
C        0.26414574      -0.61084120       0.68719683
C        1.61345481      -0.98427489       0.13399144
C        1.39329318       0.35173459       0.49056911
O        1.56947232       1.06814214      -1.28491910
H       -1.44859332       1.51333661       0.05481972
H       -2.25862393       0.45379725       1.20668464
H       -2.81835767       0.52925592      -0.46792545
H       -1.47567790      -1.55141272      -0.11375808
H       -0.66686159      -0.49893485      -1.24205028
H        0.04221864      -0.84158515       1.72939446
H        2.31006806      -1.71888537       0.50755708
H        1.72241891      -0.24903258      -1.32904167
H        1.90318290       1.05811886       1.12616800
H        0.74718794       1.52905830      -1.47325412
16
Frame=13 idx=003538 GeodesicLength=1.012607995138704 rxn_smarts="[C:1]([C:2]([C@@:3]1([H:12])[C:4]([H:13])([H:14])[C@:5]1([O:6][H:16])[H:15])([H:10])[H:11])([H:7])([H:8])[H:9]>>[C:1]([C:2]([C:3]1([H:12])[C:4]([H:13])=[C:5]1[H:15])([H:10])[H:11])([H:7])([H:8])[H:9].[O:6]([H:14])[H:16]"
C       -1.93404642       0.53588879       0.17068149
C       -0.96682688      -0.58683562      -0.19045241
C        0.26082809      -0.61121414       0.69327465
C        1.61100680      -0.97858450       0.13831491
C        1.38750441       0.35563756       0.49551388
O        1.57454168       1.07162796      -1.30464417
H       -1.45095182       1.51125275       0.05946803
H       -2.26364545       0.44965417       1.20855277
H       -2.81936190       0.52771635      -0.46759751
H       -1.47592842      -1.55250062      -0.11498329
H       -0.66482269      -0.49484934      -1.23786578
H        0.03977317      -0.84868414       1.73376809
H        2.30816322      -1.71767177       0.50162687
H        1.73066441      -0.27148501      -1.33265073
H        1.90252550       1.05983208       1.12921457
H        0.76057627       1.55021549      -1.48222138
16
Frame=14 idx=003538 GeodesicLength=1.0906218100265632 rxn_smarts="[C:1]([C:2]([C@@:3]1([H:12])[C:4]([H:13])([H:14])[C@:5]1([O:6][H:16])[H:15])([H:10])[H:11])([H:7])([H:8])[H:9]>>[C:1]([C:2]([C:3]1([H:12])[C:4]([H:13])=[C:5]1[H:15])([H:10])[H:11])([H:7])([H:8])[H:9].[O:6]([H:14])[H:16]"
C       -1.93683224       0.53380902       0.17348866
C       -0.96761011      -0.58728422      -0.18754747
C        0.25750318      -0.61162552       0.69936225
C        1.60856901      -0.97276494       0.14261342
C        1.38161439       0.35961114       0.50052442
O        1.57935822       1.07511326      -1.32488400
H       -1.45334950       1.50912654       0.06416658
H       -2.26866450       0.44542969       1.21046100
H       -2.82039247       0.52613062      -0.46720713
H       -1.47613877      -1.55360514      -0.11626357
H       -0.66277638      -0.49068171      -1.23363855
H        0.03735909      -0.85590370       1.73809342
H        2.30615329      -1.71628657       0.49567257
H        1.73892204      -0.29476048      -1.33609729
H        1.90171829       1.06168693       1.13223316
H        0.77456646       1.57200508      -1.49097747
16
Frame=15 idx=003538 GeodesicLength=1.1686188498434973 rxn_smarts="[C:1]([C:2]([C@@:3]1([H:12])[C:4]([H:13])([H:14])[C@:5]1([O:6][H:16])[H:15])([H:10])[H:11])([H:7])([H:8])[H:9]>>[C:1]([C:2]([C:3]1([H:12])[C:4]([H:13])=[C:5]1[H:15])([H:10])[H:11])([H:7])([H:8])[H:9].[O:6]([H:14])[H:16]"
C       -1.93964146       0.53168017       0.17634134
C       -0.96839381      -0.58774510      -0.18463834
C        0.25417276      -0.61207862       0.70545435
C        1.60614315      -0.96680693       0.14687519
C        1.37561936       0.36365790       0.50560607
O        1.58388338       1.07861542      -1.34565688
H       -1.45578504       1.50695581       0.06891073
H       -2.27367466       0.44112472       1.21241197
H       -2.82145189       0.52449626      -0.46674921
H       -1.47630942      -1.55472704      -0.11759941
H       -0.66072672      -0.48643457      -1.22936976
H        0.03498192      -0.86325506       1.74236190
H        2.30403772      -1.71471567       0.48970359
H        1.74717602      -0.31889307      -1.33936807
H        1.90075596       1.06368903       1.13522777
H        0.78921274       1.59443674      -1.49951125
16
Frame=16 idx=003538 GeodesicLength=1.2465850280122526 rxn_smarts="[C:1]([C:2]([C@@:3]1([H:12])[C:4]([H:13])([H:14])[C@:5]1([O:6][H:16])[H:15])([H:10])[H:11])([H:7])([H:8])[H:9]>>[C:1]([C:2]([C:3]1([H:12])[C:4]([H:13])=[C:5]1[H:15])([H:10])[H:11])([H:7])([H:8])[H:9].[O:6]([H:14])[H:16]"
C       -1.94247370       0.52950091       0.17924103
C       -0.96917922      -0.58821966      -0.18172718
C        0.25083863      -0.61257683       0.71154447
C        1.60373046      -0.96070123       0.15108696
C        1.36951522       0.36778056       0.51076389
O        1.58807522       1.08215639      -1.36698137
H       -1.45825781       1.50473858       0.07369629
H       -2.27866915       0.43673976       1.21440941
H       -2.82254391       0.52281048      -0.46621702
H       -1.47644123      -1.55586701      -0.11899231
H       -0.65867857      -0.48210938      -1.22506125
H        0.03264781      -0.87075150       1.74656341
H        2.30181883      -1.71294287       0.48373477
H        1.75540752      -0.34391826      -1.34245014
H        1.89963275       1.06584358       1.13820295
H        0.80457716       1.61751647      -1.50781391
