16
Frame=0 idx=001780 GeodesicLength=0.0 rxn_smarts="[C:1]([C@@:2]1([H:10])[C:3]([H:11])([H:12])[C@:4]([O:5][H:14])([H:13])[C:6]1([H:15])[H:16])([H:7])([H:8])[H:9]>>[C:1]([C@@:2]1([H:10])[C:3]([H:11])([H:12])[C@@:6]1([C:4](=[O:5])[H:13])[H:16])([H:7])([H:8])[H:9].[H:14][H:15]"
C        2.09310709      -0.03009205      -0.29485667
C        0.77550000       0.28836601       0.36481572
C       -0.30058698       1.09744664      -0.39835622
C       -1.54376816       0.19922336       0.33262746
O       -2.59694435      -0.37321309      -0.16967840
C       -0.37600548      -0.65432794       0.20901085
H        2.72203681       0.85931101      -0.35489434
H        1.94367076      -0.40835182      -1.30821626
H        2.63699988      -0.78679980       0.27276261
H        0.88957201       0.67910696       1.37466266
H       -0.25189904       1.02475327      -1.47911577
H       -0.45485622       2.10858769      -0.04014312
H       -1.64499419       0.71892356       1.29592659
H       -2.16888140      -1.57734141       0.28283612
H       -1.37939460      -1.97834752       0.66152414
H       -0.34355614      -1.16724485      -0.74890544
16
Frame=1 idx=001780 GeodesicLength=0.07880667278557589 rxn_smarts="[C:1]([C@@:2]1([H:10])[C:3]([H:11])([H:12])[C@:4]([O:5][H:14])([H:13])[C:6]1([H:15])[H:16])([H:7])([H:8])[H:9]>>[C:1]([C@@:2]1([H:10])[C:3]([H:11])([H:12])[C@@:6]1([C:4](=[O:5])[H:13])[H:16])([H:7])([H:8])[H:9].[H:14][H:15]"
C        2.09501524      -0.02827235      -0.29340645
C        0.77596418       0.29080065       0.36333507
C       -0.29436688       1.09964071      -0.40320329
C       -1.54900016       0.20103041       0.33348630
O       -2.60445189      -0.37538967      -0.16047087
C       -0.37705093      -0.65053637       0.20056656
H        2.72647399       0.85981084      -0.34829163
H        1.94845576      -0.40122270      -1.30920650
H        2.63571585      -0.78893291       0.27202627
H        0.88698338       0.67694560       1.37524670
H       -0.24174744       1.03071001      -1.48420629
H       -0.44909502       2.11207207      -0.04799668
H       -1.64593653       0.71823783       1.29902531
H       -2.19286082      -1.58982937       0.29581194
H       -1.36967047      -1.98743110       0.66231443
H       -0.34442825      -1.16763365      -0.75503086
16
Frame=2 idx=001780 GeodesicLength=0.15732405304745178 rxn_smarts="[C:1]([C@@:2]1([H:10])[C:3]([H:11])([H:12])[C@:4]([O:5][H:14])([H:13])[C:6]1([H:15])[H:16])([H:7])([H:8])[H:9]>>[C:1]([C@@:2]1([H:10])[C:3]([H:11])([H:12])[C@@:6]1([C:4](=[O:5])[H:13])[H:16])([H:7])([H:8])[H:9].[H:14][H:15]"
C        2.09694924      -0.02644761      -0.29190856
C        0.77641521       0.29326934       0.36179484
C       -0.28807337       1.10190943      -0.40815914
C       -1.55424620       0.20284867       0.33428040
O       -2.61188654      -0.37781712      -0.15105527
C       -0.37811166      -0.64665040       0.19194109
H        2.73093596       0.86028091      -0.34157455
H        1.95336946      -0.39407216      -1.31012768
H        2.63439336      -0.79106183       0.27134361
H        0.88431012       0.67479039       1.37575526
H       -0.23138023       1.03678779      -1.48937394
H       -0.44331976       2.11559020      -0.05589894
H       -1.64685469       0.71745668       1.30209492
H       -2.21747491      -1.60236563       0.30968061
H       -1.35979324      -1.99660147       0.66253025
H       -0.34523275      -1.16791717      -0.76132290
16
Frame=3 idx=001780 GeodesicLength=0.2356707889092023 rxn_smarts="[C:1]([C@@:2]1([H:10])[C:3]([H:11])([H:12])[C@:4]([O:5][H:14])([H:13])[C:6]1([H:15])[H:16])([H:7])([H:8])[H:9]>>[C:1]([C@@:2]1([H:10])[C:3]([H:11])([H:12])[C@@:6]1([C:4](=[O:5])[H:13])[H:16])([H:7])([H:8])[H:9].[H:14][H:15]"
C        2.09890957      -0.02461662      -0.29036333
C        0.77685320       0.29577133       0.36019319
C       -0.28170444       1.10425353      -0.41322368
C       -1.55950693       0.20466983       0.33500568
O       -2.61923975      -0.38049999      -0.14143621
C       -0.37918549      -0.64266957       0.18312858
H        2.73542117       0.86072274      -0.33474097
H        1.95841442      -0.38689791      -1.31098000
H        2.63303303      -0.79318551       0.27071286
H        0.88155054       0.67263860       1.37618648
H       -0.22079079       1.04299160      -1.49461657
H       -0.43753272       2.11914123      -0.06384547
H       -1.64774934       0.71656949       1.30513124
H       -2.24277237      -1.61493504       0.32443480
H       -1.34973509      -2.00585757       0.66219979
H       -0.34596501      -1.16809613      -0.76778640
16
Frame=4 idx=001780 GeodesicLength=0.31401120478137257 rxn_smarts="[C:1]([C@@:2]1([H:10])[C:3]([H:11])([H:12])[C@:4]([O:5][H:14])([H:13])[C:6]1([H:15])[H:16])([H:7])([H:8])[H:9]>>[C:1]([C@@:2]1([H:10])[C:3]([H:11])([H:12])[C@@:6]1([C:4](=[O:5])[H:13])[H:16])([H:7])([H:8])[H:9].[H:14][H:15]"
C        2.10089664      -0.02277786      -0.28877247
C        0.77727860       0.29830517       0.35852806
C       -0.27525872       1.10667312      -0.41839531
C       -1.56478233       0.20648215       0.33565910
O       -2.62650227      -0.38343826      -0.13162809
C       -0.38026972      -0.63859413       0.17412279
H        2.73992766       0.86113824      -0.32778952
H        1.96359263      -0.37969647      -1.31176493
H        2.63163595      -0.79530316       0.27012955
H        0.87870398       0.67048609       1.37653848
H       -0.20997291       1.04932738      -1.49993035
H       -0.43173739       2.12272321      -0.07182907
H       -1.64862206       0.71556195       1.30813078
H       -2.26882642      -1.62751504       0.34005228
H       -1.33944313      -2.01519829       0.66137399
H       -0.34662051      -1.16817413      -0.77442528
16
Frame=5 idx=001780 GeodesicLength=0.392330765324882 rxn_smarts="[C:1]([C@@:2]1([H:10])[C:3]([H:11])([H:12])[C@:4]([O:5][H:14])([H:13])[C:6]1([H:15])[H:16])([H:7])([H:8])[H:9]>>[C:1]([C@@:2]1([H:10])[C:3]([H:11])([H:12])[C@@:6]1([C:4](=[O:5])[H:13])[H:16])([H:7])([H:8])[H:9].[H:14][H:15]"
C        2.10291182      -0.02092912      -0.28713583
C        0.77769227       0.30087122       0.35679756
C       -0.26873342       1.10916924      -0.42367487
C       -1.57007239       0.20827831       0.33623647
O       -2.63366164      -0.38664615      -0.12162823
C       -0.38136075      -0.63442290       0.16491832
H        2.74445478       0.86152966      -0.32071722
H        1.96890811      -0.37246449      -1.31248214
H        2.63020343      -0.79741280       0.26959219
H        0.87576920       0.66833200       1.37680886
H       -0.19892000       1.05579904      -1.50531384
H       -0.42593551       2.12633607      -0.07984774
H       -1.64947203       0.71442485       1.31108914
H       -2.29568519      -1.64009022       0.35653922
H       -1.32890627      -2.02462453       0.66006265
H       -0.34719242      -1.16815020      -0.78124455
16
Frame=6 idx=001780 GeodesicLength=0.4708259022847438 rxn_smarts="[C:1]([C@@:2]1([H:10])[C:3]([H:11])([H:12])[C@:4]([O:5][H:14])([H:13])[C:6]1([H:15])[H:16])([H:7])([H:8])[H:9]>>[C:1]([C@@:2]1([H:10])[C:3]([H:11])([H:12])[C@@:6]1([C:4](=[O:5])[H:13])[H:16])([H:7])([H:8])[H:9].[H:14][H:15]"
C        2.10495623      -0.01906792      -0.28545729
C        0.77809566       0.30346668       0.35499926
C       -0.26212759       1.11174093      -0.42905887
C       -1.57537583       0.21004112       0.33673666
O       -2.64070613      -0.39012019      -0.11146635
C       -0.38245424      -0.63015794       0.15550818
H        2.74900021       0.86190070      -0.31352423
H        1.97436266      -0.36519640      -1.31313508
H        2.62873866      -0.79951254       0.26909320
H        0.87274727       0.66617002       1.37699547
H       -0.18762651       1.06241354      -1.51076080
H       -0.42013205       2.12997603      -0.08789059
H       -1.65030194       0.71313753       1.31400469
H       -2.32346925      -1.65262391       0.37386218
H       -1.31803195      -2.03413575       0.65834085
H       -0.34767522      -1.16803188      -0.78824728
16
Frame=7 idx=001780 GeodesicLength=0.5495096560199775 rxn_smarts="[C:1]([C@@:2]1([H:10])[C:3]([H:11])([H:12])[C@:4]([O:5][H:14])([H:13])[C:6]1([H:15])[H:16])([H:7])([H:8])[H:9]>>[C:1]([C@@:2]1([H:10])[C:3]([H:11])([H:12])[C@@:6]1([C:4](=[O:5])[H:13])[H:16])([H:7])([H:8])[H:9].[H:14][H:15]"
C        2.10703209      -0.01719034      -0.28373901
C        0.77849076       0.30609052       0.35313092
C       -0.25543965       1.11438716      -0.43454577
C       -1.58069124       0.21175474       0.33715785
O       -2.64761974      -0.39386879      -0.10115773
C       -0.38354417      -0.62580101       0.14588624
H        2.75356256       0.86225658      -0.30620978
H        1.97996020      -0.35788684      -1.31372541
H        2.62724597      -0.80159849       0.26862707
H        0.86963867       0.66399674       1.37709582
H       -0.17608678       1.06917532      -1.51626683
H       -0.41433210       2.13363993      -0.09595109
H       -1.65111152       0.71168248       1.31687475
H       -2.35227536      -1.66507887       0.39201346
H       -1.30676854      -2.04373533       0.65624665
H       -0.34806115      -1.16782378      -0.79543714
16
Frame=8 idx=001780 GeodesicLength=0.628438549887244 rxn_smarts="[C:1]([C@@:2]1([H:10])[C:3]([H:11])([H:12])[C@:4]([O:5][H:14])([H:13])[C:6]1([H:15])[H:16])([H:7])([H:8])[H:9]>>[C:1]([C@@:2]1([H:10])[C:3]([H:11])([H:12])[C@@:6]1([C:4](=[O:5])[H:13])[H:16])([H:7])([H:8])[H:9].[H:14][H:15]"
C        2.10914258      -0.01529185      -0.28198417
C        0.77888023       0.30874069       0.35118973
C       -0.24866745       1.11710697      -0.44013336
C       -1.58601584       0.21340141       0.33749765
O       -2.65438728      -0.39789903      -0.09072906
C       -0.38462381      -0.62135444       0.13604473
H        2.75814095       0.86260342      -0.29877226
H        1.98570563      -0.35052741      -1.31425647
H        2.62573060      -0.80366679       0.26818641
H        0.86644478       0.66180665       1.37710738
H       -0.16429445       1.07609069      -1.52182672
H       -0.40854019       2.13732424      -0.10402067
H       -1.65190267       0.71003706       1.31969664
H       -2.38224089      -1.67741140       0.41099155
H       -1.29503158      -2.05342865       0.65382786
H       -0.34834062      -1.16753155      -0.80281926
16
Frame=9 idx=001780 GeodesicLength=0.7075526576013137 rxn_smarts="[C:1]([C@@:2]1([H:10])[C:3]([H:11])([H:12])[C@:4]([O:5][H:14])([H:13])[C:6]1([H:15])[H:16])([H:7])([H:8])[H:9]>>[C:1]([C@@:2]1([H:10])[C:3]([H:11])([H:12])[C@@:6]1([C:4](=[O:5])[H:13])[H:16])([H:7])([H:8])[H:9].[H:14][H:15]"
C        2.11129264      -0.01336544      -0.28019532
C        0.77926820       0.31141689       0.34917308
C       -0.24180828       1.11989912      -0.44582049
C       -1.59134681       0.21496243       0.33775338
O       -2.66098357      -0.40222764      -0.08019472
C       -0.38568308      -0.61682092       0.12597642
H        2.76273523       0.86295008      -0.29121104
H        1.99160599      -0.34310892      -1.31473065
H        2.62420078      -0.80570996       0.26776473
H        0.86316735       0.65959680       1.37702707
H       -0.15224355       1.08316409      -1.52743598
H       -0.40276194       2.14102516      -0.11209330
H       -1.65267279       0.70818104       1.32246759
H       -2.41349669      -1.68957739       0.43080349
H       -1.28277226      -2.06322605       0.65111457
H       -0.34850123      -1.16715931      -0.81039885
16
Frame=10 idx=001780 GeodesicLength=0.7869506197145784 rxn_smarts="[C:1]([C@@:2]1([H:10])[C:3]([H:11])([H:12])[C@:4]([O:5][H:14])([H:13])[C:6]1([H:15])[H:16])([H:7])([H:8])[H:9]>>[C:1]([C@@:2]1([H:10])[C:3]([H:11])([H:12])[C@@:6]1([C:4](=[O:5])[H:13])[H:16])([H:7])([H:8])[H:9].[H:14][H:15]"
C        2.11348775      -0.01140316      -0.27837766
C        0.77965877       0.31411388       0.34707763
C       -0.23486106       1.12275921      -0.45160261
C       -1.59667795       0.21640736       0.33792398
O       -2.66739073      -0.40686757      -0.06960928
C       -0.38671162      -0.61220813       0.11567053
H        2.76734365       0.86330821      -0.28352459
H        1.99766900      -0.33561827      -1.31515292
H        2.62266727      -0.80772042       0.26735052
H        0.85980908       0.65735622       1.37685231
H       -0.13992835       1.09040255      -1.53308658
H       -0.39700664       2.14473421      -0.12015494
H       -1.65342625       0.70607710       1.32518586
H       -2.44626477      -1.70148169       0.45147018
H       -1.26984001      -2.07314104       0.64816103
H       -0.34852814      -1.16671847      -0.81818347
16
Frame=11 idx=001780 GeodesicLength=0.8665295556683806 rxn_smarts="[C:1]([C@@:2]1([H:10])[C:3]([H:11])([H:12])[C@:4]([O:5][H:14])([H:13])[C:6]1([H:15])[H:16])([H:7])([H:8])[H:9]>>[C:1]([C@@:2]1([H:10])[C:3]([H:11])([H:12])[C@@:6]1([C:4](=[O:5])[H:13])[H:16])([H:7])([H:8])[H:9].[H:14][H:15]"
C        2.11573520      -0.00939549      -0.27653333
C        0.78005706       0.31682988       0.34490043
C       -0.22782311       1.12568355      -0.45747868
C       -1.60200310       0.21770960       0.33800664
O       -2.67358431      -0.41184541      -0.05899549
C       -0.38769674      -0.60752206       0.10511851
H        2.77196617       0.86369109      -0.27571101
H        2.00390522      -0.32804299      -1.31552503
H        2.62114265      -0.80968678       0.26693794
H        0.85637207       0.65508043       1.37657956
H       -0.12734307       1.09780926      -1.53877349
H       -0.39128224       2.14844472      -0.12819950
H       -1.65416137       0.70369533       1.32784783
H       -2.48072884      -1.71304465       0.47303443
H       -1.25615212      -2.08319161       0.64497204
H       -0.34840347      -1.16621485      -0.82618085
16
Frame=12 idx=001780 GeodesicLength=0.9462922900049611 rxn_smarts="[C:1]([C@@:2]1([H:10])[C:3]([H:11])([H:12])[C@:4]([O:5][H:14])([H:13])[C:6]1([H:15])[H:16])([H:7])([H:8])[H:9]>>[C:1]([C@@:2]1([H:10])[C:3]([H:11])([H:12])[C@@:6]1([C:4](=[O:5])[H:13])[H:16])([H:7])([H:8])[H:9].[H:14][H:15]"
C        2.11804709      -0.00732658      -0.27466766
C        0.78047118       0.31955887       0.34263718
C       -0.22069241       1.12866442      -0.46344450
C       -1.60731200       0.21882543       0.33799584
O       -2.67953349      -0.41719795      -0.04841615
C       -0.38861834      -0.60277658       0.09430465
H        2.77660297       0.86412145      -0.26776592
H        2.01033138      -0.32035922      -1.31585384
H        2.61964771      -0.81159301       0.26651264
H        0.85285991       0.65275466       1.37620615
H       -0.11448060       1.10539121      -1.54448817
H       -0.38560309       2.15214312      -0.13621127
H       -1.65488082       0.70098428       1.33044889
H       -2.51717289      -1.72412390       0.49557448
H       -1.24156786      -2.09340526       0.64157399
H       -0.34809874      -1.16566094      -0.83440631
16
Frame=13 idx=001780 GeodesicLength=1.0261114323966027 rxn_smarts="[C:1]([C@@:2]1([H:10])[C:3]([H:11])([H:12])[C@:4]([O:5][H:14])([H:13])[C:6]1([H:15])[H:16])([H:7])([H:8])[H:9]>>[C:1]([C@@:2]1([H:10])[C:3]([H:11])([H:12])[C@@:6]1([C:4](=[O:5])[H:13])[H:16])([H:7])([H:8])[H:9].[H:14][H:15]"
C        2.12043526      -0.00518027      -0.27278348
C        0.78090863       0.32229671       0.34028390
C       -0.21346702       1.13169387      -0.46949835
C       -1.61259504       0.21971308       0.33788538
O       -2.68520522      -0.42297065      -0.03790681
C       -0.38945660      -0.59798501       0.08321532
H        2.78125411       0.86462259      -0.25968455
H        2.01696519      -0.31254528      -1.31614148
H        2.61820375      -0.81342010       0.26606634
H        0.84927464       0.65036873       1.37572843
H       -0.10133541       1.11315141      -1.55022404
H       -0.37998313       2.15581673      -0.14418115
H       -1.65558273       0.69789693       1.33298272
H       -2.55585424      -1.73457652       0.51917855
H       -1.22597676      -2.10381618       0.63795353
H       -0.34758542      -1.16506605      -0.84287431
16
Frame=14 idx=001780 GeodesicLength=1.1059238462899716 rxn_smarts="[C:1]([C@@:2]1([H:10])[C:3]([H:11])([H:12])[C@:4]([O:5][H:14])([H:13])[C:6]1([H:15])[H:16])([H:7])([H:8])[H:9]>>[C:1]([C@@:2]1([H:10])[C:3]([H:11])([H:12])[C@@:6]1([C:4](=[O:5])[H:13])[H:16])([H:7])([H:8])[H:9].[H:14][H:15]"
C        2.12291761      -0.00293317      -0.27088517
C        0.78138043       0.32503581       0.33783578
C       -0.20614476       1.13475983      -0.47563658
C       -1.61783709       0.22031409       0.33766627
O       -2.69056199      -0.42923302      -0.02753397
C       -0.39018303      -0.59316811       0.07183129
H        2.78592071       0.86522782      -0.25145813
H        2.02383256      -0.30456696      -1.31639414
H        2.61684144      -0.81514329       0.26558386
H        0.84562019       0.64790442       1.37514340
H       -0.08790050       1.12109498      -1.55597252
H       -0.37444277       2.15944601      -0.15209319
H       -1.65626867       0.69436492       1.33544177
H       -2.59712461      -1.74419485       0.54398664
H       -1.20922944      -2.11446497       0.63409248
H       -0.34682007      -1.16444352      -0.85160780
16
Frame=15 idx=001780 GeodesicLength=1.1855737330295852 rxn_smarts="[C:1]([C@@:2]1([H:10])[C:3]([H:11])([H:12])[C@:4]([O:5][H:14])([H:13])[C:6]1([H:15])[H:16])([H:7])([H:8])[H:9]>>[C:1]([C@@:2]1([H:10])[C:3]([H:11])([H:12])[C@@:6]1([C:4](=[O:5])[H:13])[H:16])([H:7])([H:8])[H:9].[H:14][H:15]"
C        2.12551367      -0.00055922      -0.26897535
C        0.78189862       0.32777023       0.33528832
C       -0.19872389       1.13784846      -0.48185714
C       -1.62302168       0.22056689       0.33732964
O       -2.69556150      -0.43606977      -0.01733805
C       -0.39076627      -0.58834820       0.06013564
H        2.79060373       0.86597511      -0.24307915
H        2.03096130      -0.29638972      -1.31661464
H        2.61559575      -0.81673174       0.26505473
H        0.84190069       0.64534713       1.37444723
H       -0.07417153       1.12922240      -1.56172587
H       -0.36900445       2.16301023      -0.15993662
H       -1.65693489       0.69031964       1.33781750
H       -2.64132460      -1.75275468       0.57013993
H       -1.19120924      -2.12540043       0.62994193
H       -0.34575571      -1.16380634      -0.86062807
16
Frame=16 idx=001780 GeodesicLength=1.2649198430752029 rxn_smarts="[C:1]([C@@:2]1([H:10])[C:3]([H:11])([H:12])[C@:4]([O:5][H:14])([H:13])[C:6]1([H:15])[H:16])([H:7])([H:8])[H:9]>>[C:1]([C@@:2]1([H:10])[C:3]([H:11])([H:12])[C@@:6]1([C:4](=[O:5])[H:13])[H:16])([H:7])([H:8])[H:9].[H:14][H:15]"
C        2.12824650       0.00197284      -0.26705793
C        0.78247750       0.33049261       0.33263696
C       -0.19120377       1.14094238      -0.48815690
C       -1.62812929       0.22039925       0.33686735
O       -2.70015608      -0.44358696      -0.00736345
C       -0.39116923      -0.58355294       0.04811164
H        2.79530409       0.86690958      -0.23453993
H        2.03838333      -0.28797216      -1.31680755
H        2.61450888      -0.81814895       0.26446494
H        0.83812235       0.64267953       1.37363615
H       -0.06014618       1.13753274      -1.56747495
H       -0.36369589       2.16648402      -0.16769872
H       -1.65757692       0.68568003       1.34010309
H       -2.68884299      -1.75998722       0.59778808
H       -1.17178600      -2.13667387       0.62544872
H       -0.34433630      -1.16317089      -0.86995751
