16
Frame=0 idx=008583 GeodesicLength=0.0 rxn_smarts="[C:1]([c:2]1[c:3]([H:11])[c:4]([C:5]([H:12])([H:13])[H:14])[c:6]([H:15])[n:7]1[H:16])([H:8])([H:9])[H:10]>>[C:1]([C@@:2]1([H:11])[C-:3]=[C:4]([C:5]([H:12])([H:13])[H:14])[C+:6]([H:15])[N:7]1[H:16])([H:8])([H:9])[H:10]"
C        2.49692618      -0.53568160       0.19159068
C        1.07263111      -0.15588167      -0.08668501
C       -0.08413936      -1.02365953      -0.03436705
C       -1.17613498      -0.07865005       0.00215712
C       -2.62296736      -0.46322234      -0.01791943
C       -0.68697317       1.19478831       0.09883420
N        0.66824428       1.17732382       0.06271412
H        2.70270157      -0.45085083       1.25963065
H        2.65044986      -1.57335779      -0.09855062
H        3.20672512       0.09309990      -0.35045778
H        0.73018837      -0.58509663      -1.15838374
H       -3.27581921       0.39502340       0.15492838
H       -2.83163566      -1.21045758       0.74917910
H       -2.89408197      -0.90689372      -0.97840103
H       -1.21788770       2.13668704       0.15758948
H        1.26177291       1.98682928       0.04814097
16
Frame=1 idx=008583 GeodesicLength=0.051102491233983686 rxn_smarts="[C:1]([c:2]1[c:3]([H:11])[c:4]([C:5]([H:12])([H:13])[H:14])[c:6]([H:15])[n:7]1[H:16])([H:8])([H:9])[H:10]>>[C:1]([C@@:2]1([H:11])[C-:3]=[C:4]([C:5]([H:12])([H:13])[H:14])[C+:6]([H:15])[N:7]1[H:16])([H:8])([H:9])[H:10]"
C        2.49461410      -0.53455534       0.19373415
C        1.07451694      -0.15336814      -0.10328780
C       -0.08272811      -1.01771789      -0.05073305
C       -1.17528520      -0.07741656      -0.00166280
C       -2.62177859      -0.46330536      -0.01757173
C       -0.68508294       1.19595404       0.10579571
N        0.66879751       1.17972847       0.05186306
H        2.68769802      -0.45103673       1.26433597
H        2.65205090      -1.57186313      -0.09574737
H        3.21122668       0.09437282      -0.33918718
H        0.72985788      -0.60207282      -1.18177626
H       -3.27778628       0.39757355       0.12834291
H       -2.83444153      -1.18932451       0.76886139
H       -2.88823969      -0.93230119      -0.96723187
H       -1.21534998       2.13573894       0.19620303
H        1.26193027       1.98959386       0.04806183
16
Frame=2 idx=008583 GeodesicLength=0.10220156764466445 rxn_smarts="[C:1]([c:2]1[c:3]([H:11])[c:4]([C:5]([H:12])([H:13])[H:14])[c:6]([H:15])[n:7]1[H:16])([H:8])([H:9])[H:10]>>[C:1]([C@@:2]1([H:11])[C-:3]=[C:4]([C:5]([H:12])([H:13])[H:14])[C+:6]([H:15])[N:7]1[H:16])([H:8])([H:9])[H:10]"
C        2.49211644      -0.53328821       0.19575830
C        1.07641550      -0.15067440      -0.11985260
C       -0.08128601      -1.01166128      -0.06711683
C       -1.17436019      -0.07620857      -0.00532837
C       -2.62052726      -0.46332644      -0.01716843
C       -0.68307015       1.19695045       0.11351203
N        0.66923692       1.18225464       0.04135934
H        2.67256537      -0.45113546       1.26876210
H        2.65345999      -1.57021327      -0.09307648
H        3.21538386       0.09580539      -0.32799084
H        0.72943609      -0.61949514      -1.20497227
H       -3.27935396       0.39956105       0.10204614
H       -2.83729902      -1.16789603       0.78773554
H       -2.88236724      -0.95704809      -0.95548592
H       -1.21233478       2.13403327       0.23330636
H        1.26198443       1.99234210       0.04851192
16
Frame=3 idx=008583 GeodesicLength=0.1533907781243839 rxn_smarts="[C:1]([c:2]1[c:3]([H:11])[c:4]([C:5]([H:12])([H:13])[H:14])[c:6]([H:15])[n:7]1[H:16])([H:8])([H:9])[H:10]>>[C:1]([C@@:2]1([H:11])[C-:3]=[C:4]([C:5]([H:12])([H:13])[H:14])[C+:6]([H:15])[N:7]1[H:16])([H:8])([H:9])[H:10]"
C        2.48942095      -0.53182648       0.19774583
C        1.07832790      -0.14782700      -0.13648332
C       -0.07982003      -1.00551102      -0.08342767
C       -1.17336514      -0.07500793      -0.00906009
C       -2.61922490      -0.46325216      -0.01691828
C       -0.68092404       1.19783513       0.12136090
N        0.66956162       1.18495102       0.03070154
H        2.65724137      -0.45077604       1.27299911
H        2.65467281      -1.56846231      -0.09014283
H        3.21921613       0.09730359      -0.31695088
H        0.72898137      -0.63776124      -1.22795031
H       -3.28053024       0.40110544       0.07551253
H       -2.84029875      -1.14590821       0.80583104
H       -2.87641015      -0.98141619      -0.94326813
H       -1.20877413       2.13140838       0.27145650
H        1.26192526       1.99514501       0.04859407
16
Frame=4 idx=008583 GeodesicLength=0.2043376785295224 rxn_smarts="[C:1]([c:2]1[c:3]([H:11])[c:4]([C:5]([H:12])([H:13])[H:14])[c:6]([H:15])[n:7]1[H:16])([H:8])([H:9])[H:10]>>[C:1]([C@@:2]1([H:11])[C-:3]=[C:4]([C:5]([H:12])([H:13])[H:14])[C+:6]([H:15])[N:7]1[H:16])([H:8])([H:9])[H:10]"
C        2.48658198      -0.53024518       0.19952951
C        1.08024979      -0.14476856      -0.15291208
C       -0.07831569      -0.99918691      -0.09969967
C       -1.17227985      -0.07387240      -0.01221298
C       -2.61784840      -0.46313658      -0.01648670
C       -0.67862548       1.19837786       0.13053951
N        0.66977050       1.18765727       0.02092339
H        2.64193918      -0.45063080       1.27681580
H        2.65571388      -1.56644255      -0.08766916
H        3.22269674       0.09902978      -0.30595367
H        0.72833391      -0.65623716      -1.25052249
H       -3.28129963       0.40199759       0.04983527
H       -2.84339700      -1.12406540       0.82284927
H       -2.87036505      -1.00464420      -0.93061362
H       -1.20490174       2.12837856       0.30609290
H        1.26174686       1.99778866       0.04948471
16
Frame=5 idx=008583 GeodesicLength=0.2554282998926284 rxn_smarts="[C:1]([c:2]1[c:3]([H:11])[c:4]([C:5]([H:12])([H:13])[H:14])[c:6]([H:15])[n:7]1[H:16])([H:8])([H:9])[H:10]>>[C:1]([C@@:2]1([H:11])[C-:3]=[C:4]([C:5]([H:12])([H:13])[H:14])[C+:6]([H:15])[N:7]1[H:16])([H:8])([H:9])[H:10]"
C        2.48354029      -0.52846213       0.20131883
C        1.08218782      -0.14155475      -0.16942145
C       -0.07679027      -0.99276968      -0.11598289
C       -1.17112224      -0.07274501      -0.01548901
C       -2.61642368      -0.46291450      -0.01626272
C       -0.67618317       1.19881128       0.13966672
N        0.66986135       1.19053608       0.01103055
H        2.62639602      -0.45004799       1.28050870
H        2.65656805      -1.56431689      -0.08490474
H        3.22587645       0.10084440      -0.29503448
H        0.72770613      -0.67562378      -1.27286400
H       -3.28166884       0.40252408       0.02370036
H       -2.84669171      -1.10154990       0.83916588
H       -2.86421612      -1.02764639      -0.91749996
H       -1.20045974       2.12435488       0.34261664
H        1.26141964       2.00056031       0.04945156
16
Frame=6 idx=008583 GeodesicLength=0.3066148500666491 rxn_smarts="[C:1]([c:2]1[c:3]([H:11])[c:4]([C:5]([H:12])([H:13])[H:14])[c:6]([H:15])[n:7]1[H:16])([H:8])([H:9])[H:10]>>[C:1]([C@@:2]1([H:11])[C-:3]=[C:4]([C:5]([H:12])([H:13])[H:14])[C+:6]([H:15])[N:7]1[H:16])([H:8])([H:9])[H:10]"
C        2.48037092      -0.52666865       0.20293340
C        1.08416431      -0.13811504      -0.18575647
C       -0.07521108      -0.98622567      -0.13242188
C       -1.16985890      -0.07167083      -0.01828688
C       -2.61490164      -0.46270298      -0.01579752
C       -0.67354989       1.19898825       0.14989914
N        0.66987367       1.19353139       0.00219145
H        2.61082515      -0.44995337       1.28393691
H        2.65728314      -1.56208672      -0.08274443
H        3.22876409       0.10288991      -0.28404118
H        0.72699270      -0.69521297      -1.29497993
H       -3.28164014       0.40250607      -0.00157996
H       -2.85000320      -1.07924055       0.85472707
H       -2.85800764      -1.04978516      -0.90395728
H       -1.19610430       2.12037035       0.37561055
H        1.26100282       2.00337597       0.05026700
16
Frame=7 idx=008583 GeodesicLength=0.35764615103329034 rxn_smarts="[C:1]([c:2]1[c:3]([H:11])[c:4]([C:5]([H:12])([H:13])[H:14])[c:6]([H:15])[n:7]1[H:16])([H:8])([H:9])[H:10]>>[C:1]([C@@:2]1([H:11])[C-:3]=[C:4]([C:5]([H:12])([H:13])[H:14])[C+:6]([H:15])[N:7]1[H:16])([H:8])([H:9])[H:10]"
C        2.47697767      -0.52462450       0.20452854
C        1.08614512      -0.13448637      -0.20216240
C       -0.07363361      -0.97947579      -0.14896099
C       -1.16852922      -0.07060448      -0.02123772
C       -2.61333759      -0.46236925      -0.01552995
C       -0.67080509       1.19897522       0.15992394
N        0.66976157       1.19658135      -0.00665983
H        2.59497762      -0.44947614       1.28712880
H        2.65778797      -1.55958304      -0.08037256
H        3.23134290       0.10506577      -0.27303278
H        0.72630603      -0.71564325      -1.31672291
H       -3.28121040       0.40203758      -0.02741597
H       -2.85351767      -1.05606883       0.86957244
H       -2.85170875      -1.07173410      -0.88976621
H       -1.19098730       2.11521746       0.41046289
H        1.26043074       2.00618837       0.05024471
16
Frame=8 idx=008583 GeodesicLength=0.4087665227045718 rxn_smarts="[C:1]([c:2]1[c:3]([H:11])[c:4]([C:5]([H:12])([H:13])[H:14])[c:6]([H:15])[n:7]1[H:16])([H:8])([H:9])[H:10]>>[C:1]([C@@:2]1([H:11])[C-:3]=[C:4]([C:5]([H:12])([H:13])[H:14])[C+:6]([H:15])[N:7]1[H:16])([H:8])([H:9])[H:10]"
C        2.47341501      -0.52246182       0.20603587
C        1.08815036      -0.13064620      -0.21853178
C       -0.07202886      -0.97257427      -0.16561552
C       -1.16710875      -0.06956519      -0.02398237
C       -2.61170237      -0.46198039      -0.01526934
C       -0.66790923       1.19879381       0.17025850
N        0.66955471       1.19976492      -0.01504411
H        2.57898216      -0.44903471       1.29011633
H        2.65812669      -1.55694963      -0.07815929
H        3.23362970       0.10740871      -0.26200438
H        0.72559439      -0.73672324      -1.33815121
H       -3.28038031       0.40112217      -0.05315206
H       -2.85718840      -1.03261061       0.88368375
H       -2.84529590      -1.09318339      -0.87512434
H       -1.18556790       2.10950446       0.44490701
H        1.25972870       2.00913537       0.05003296
16
Frame=9 idx=008583 GeodesicLength=0.45992062486141677 rxn_smarts="[C:1]([c:2]1[c:3]([H:11])[c:4]([C:5]([H:12])([H:13])[H:14])[c:6]([H:15])[n:7]1[H:16])([H:8])([H:9])[H:10]>>[C:1]([C@@:2]1([H:11])[C-:3]=[C:4]([C:5]([H:12])([H:13])[H:14])[C+:6]([H:15])[N:7]1[H:16])([H:8])([H:9])[H:10]"
C        2.46970474      -0.52021635       0.20740862
C        1.09018477      -0.12657421      -0.23480568
C       -0.07039429      -0.96549034      -0.18239239
C       -1.16558378      -0.06857227      -0.02635665
C       -2.60998269      -0.46156125      -0.01494096
C       -0.66484349       1.19838763       0.18112625
N        0.66927150       1.20305007      -0.02274513
H        2.56290073      -0.44879920       1.29284309
H        2.65830753      -1.55417477      -0.07627359
H        3.23563203       0.10992425      -0.25094972
H        0.72482502      -0.75834518      -1.35921357
H       -3.27915056       0.39973009      -0.07855813
H       -2.86101397      -1.00905990       0.89702802
H       -2.83874443      -1.11400063      -0.86007623
H       -1.18002918       2.10351618       0.47797342
H        1.25891608       2.01218588       0.04993265
16
Frame=10 idx=008583 GeodesicLength=0.5110740800909727 rxn_smarts="[C:1]([c:2]1[c:3]([H:11])[c:4]([C:5]([H:12])([H:13])[H:14])[c:6]([H:15])[n:7]1[H:16])([H:8])([H:9])[H:10]>>[C:1]([C@@:2]1([H:11])[C-:3]=[C:4]([C:5]([H:12])([H:13])[H:14])[C+:6]([H:15])[N:7]1[H:16])([H:8])([H:9])[H:10]"
C        2.46585559      -0.51787384       0.20863883
C        1.09224175      -0.12227212      -0.25096349
C       -0.06874103      -0.95820443      -0.19925389
C       -1.16395763      -0.06763310      -0.02835156
C       -2.60818366      -0.46110991      -0.01457072
C       -0.66163356       1.19778747       0.19231535
N        0.66891631       1.20642351      -0.02980083
H        2.54678733      -0.44868422       1.29528381
H        2.65831840      -1.55125553      -0.07465762
H        3.23734797       0.11257883      -0.23994630
H        0.72398825      -0.78059103      -1.37982833
H       -3.27753465       0.39786317      -0.10362626
H       -2.86500534      -0.98545324       0.90955568
H       -2.83205589      -1.13415016      -0.84467398
H       -1.17434487       2.09724785       0.50990810
H        1.25800103       2.01532674       0.04997120
16
Frame=11 idx=008583 GeodesicLength=0.5622315888455588 rxn_smarts="[C:1]([c:2]1[c:3]([H:11])[c:4]([C:5]([H:12])([H:13])[H:14])[c:6]([H:15])[n:7]1[H:16])([H:8])([H:9])[H:10]>>[C:1]([C@@:2]1([H:11])[C-:3]=[C:4]([C:5]([H:12])([H:13])[H:14])[C+:6]([H:15])[N:7]1[H:16])([H:8])([H:9])[H:10]"
C        2.46189178      -0.51546210       0.20969049
C        1.09432395      -0.11772655      -0.26697099
C       -0.06706785      -0.95070455      -0.21617997
C       -1.16221744      -0.06676454      -0.02984364
C       -2.60629684      -0.46064459      -0.01412872
C       -0.65826402       1.19697507       0.20396276
N        0.66850448       1.20988600      -0.03611741
H        2.53070469      -0.44877365       1.29741182
H        2.65817054      -1.54821292      -0.07340430
H        3.23879043       0.11536187      -0.22903218
H        0.72305142      -0.80345061      -1.39994786
H       -3.27553107       0.39553811      -0.12825363
H       -2.86918853      -0.96193439       0.92126136
H       -2.82519814      -1.15357813      -0.82900185
H       -1.16867376       2.09092555       0.54023456
H        1.25700036       2.01856543       0.05031956
16
Frame=12 idx=008583 GeodesicLength=0.6133708176230586 rxn_smarts="[C:1]([c:2]1[c:3]([H:11])[c:4]([C:5]([H:12])([H:13])[H:14])[c:6]([H:15])[n:7]1[H:16])([H:8])([H:9])[H:10]>>[C:1]([C@@:2]1([H:11])[C-:3]=[C:4]([C:5]([H:12])([H:13])[H:14])[C+:6]([H:15])[N:7]1[H:16])([H:8])([H:9])[H:10]"
C        2.45783777      -0.51299248       0.21052876
C        1.09643042      -0.11292604      -0.28280164
C       -0.06537484      -0.94297444      -0.23313969
C       -1.16034972      -0.06598857      -0.03072349
C       -2.60431616      -0.46017125      -0.01360931
C       -0.65471834       1.19591146       0.21618807
N        0.66804302       1.21342604      -0.04165153
H        2.51471421      -0.44910833       1.29919114
H        2.65787998      -1.54504786      -0.07257807
H        3.23997082       0.11826377      -0.21825334
H        0.72197652      -0.82694265      -1.41950164
H       -3.27312693       0.39277955      -0.15242177
H       -2.87361159      -0.93858145       0.93212717
H       -2.81813671      -1.17225414      -0.81312898
H       -1.16313901       2.08471481       0.56870401
H        1.25592057       2.02189159       0.05107031
16
Frame=13 idx=008583 GeodesicLength=0.664508250034767 rxn_smarts="[C:1]([c:2]1[c:3]([H:11])[c:4]([C:5]([H:12])([H:13])[H:14])[c:6]([H:15])[n:7]1[H:16])([H:8])([H:9])[H:10]>>[C:1]([C@@:2]1([H:11])[C-:3]=[C:4]([C:5]([H:12])([H:13])[H:14])[C+:6]([H:15])[N:7]1[H:16])([H:8])([H:9])[H:10]"
C        2.45370777      -0.51047940       0.21114716
C        1.09855929      -0.10786779      -0.29842385
C       -0.06367193      -0.93499399      -0.25013867
C       -1.15834983      -0.06531916      -0.03097295
C       -2.60223694      -0.45970632      -0.01300042
C       -0.65100675       1.19462412       0.22892681
N        0.66754552       1.21704051      -0.04636915
H        2.49886975      -0.44967807       1.30061795
H        2.65743343      -1.54178669      -0.07217087
H        3.24090349       0.12124562      -0.20766352
H        0.72075542      -0.85109338      -1.43845097
H       -3.27034091       0.38960454      -0.17599198
H       -2.87823327      -0.91554689       0.94214498
H       -2.81088978      -1.19011402      -0.79715439
H       -1.15782705       2.07877240       0.59515996
H        1.25478178       2.02529852       0.05233991
16
Frame=14 idx=008583 GeodesicLength=0.715660026217337 rxn_smarts="[C:1]([c:2]1[c:3]([H:11])[c:4]([C:5]([H:12])([H:13])[H:14])[c:6]([H:15])[n:7]1[H:16])([H:8])([H:9])[H:10]>>[C:1]([C@@:2]1([H:11])[C-:3]=[C:4]([C:5]([H:12])([H:13])[H:14])[C+:6]([H:15])[N:7]1[H:16])([H:8])([H:9])[H:10]"
C        2.44951252      -0.50794123       0.21153891
C        1.10071309      -0.10253512      -0.31383996
C       -0.06196209      -0.92674828      -0.26720628
C       -1.15620321      -0.06476886      -0.03054760
C       -2.60004868      -0.45926181      -0.01228853
C       -0.64710957       1.19309660       0.24227092
N        0.66701797       1.22074570      -0.05027942
H        2.48318133      -0.45050692       1.30170331
H        2.65683204      -1.53846180      -0.07219430
H        3.24160764       0.12428534      -0.19727588
H        0.71938153      -0.87593640      -1.45677025
H       -3.26716898       0.38606526      -0.19887696
H       -2.88304374      -0.89296136       0.95133693
H       -2.80345513      -1.20713340      -0.78118277
H       -1.15284539       2.07325241       0.61945609
H        1.25359067       2.02880988       0.05415580
16
Frame=15 idx=008583 GeodesicLength=0.7666566259914256 rxn_smarts="[C:1]([c:2]1[c:3]([H:11])[c:4]([C:5]([H:12])([H:13])[H:14])[c:6]([H:15])[n:7]1[H:16])([H:8])([H:9])[H:10]>>[C:1]([C@@:2]1([H:11])[C-:3]=[C:4]([C:5]([H:12])([H:13])[H:14])[C+:6]([H:15])[N:7]1[H:16])([H:8])([H:9])[H:10]"
C        2.44524833      -0.50534995       0.21171110
C        1.10288524      -0.09691744      -0.32906064
C       -0.06025990      -0.91818089      -0.28434773
C       -1.15390027      -0.06433582      -0.02945039
C       -2.59774402      -0.45882573      -0.01149705
C       -0.64300976       1.19128262       0.25618227
N        0.66645964       1.22450711      -0.05348940
H        2.46763988      -0.45151793       1.30241920
H        2.65606034      -1.53502605      -0.07257240
H        3.24209020       0.12735838      -0.18709154
H        0.71782963      -0.90152133      -1.47431483
H       -3.26360951       0.38219042      -0.22100043
H       -2.88801003      -0.87090471       0.95964524
H       -2.79585387      -1.22320157      -0.76532056
H       -1.14817371       2.06807244       0.64179667
H        1.25234779       2.03237045       0.05639049
16
Frame=16 idx=008583 GeodesicLength=0.8177235988049113 rxn_smarts="[C:1]([c:2]1[c:3]([H:11])[c:4]([C:5]([H:12])([H:13])[H:14])[c:6]([H:15])[n:7]1[H:16])([H:8])([H:9])[H:10]>>[C:1]([C@@:2]1([H:11])[C-:3]=[C:4]([C:5]([H:12])([H:13])[H:14])[C+:6]([H:15])[N:7]1[H:16])([H:8])([H:9])[H:10]"
C        2.44087729      -0.50270111       0.21169181
C        1.10508226      -0.09098939      -0.34418790
C       -0.05857318      -0.90927446      -0.30174411
C       -1.15143753      -0.06401738      -0.02787152
C       -2.59532020      -0.45839492      -0.01065755
C       -0.63873536       1.18927946       0.27040843
N        0.66586544       1.22839868      -0.05617406
H        2.45210249      -0.45268363       1.30283627
H        2.65509892      -1.53151714      -0.07326336
H        3.24236068       0.13047683      -0.17703826
H        0.71617086      -0.92797354      -1.49121241
H       -3.25964904       0.37798978      -0.24274480
H       -2.89313393      -0.84903968       0.96727020
H       -2.78808148      -1.23869341      -0.74934903
H       -1.14367646       2.06306946       0.66303966
H        1.25104923       2.03607046       0.05899662
