15
Frame=0 idx=001738 GeodesicLength=0.0 rxn_smarts="[C:1]([O:2][C:3]([C@@:4]1([H:12])[C:5]([H:13])([H:14])[N:6]1[H:15])([H:10])[H:11])([H:7])([H:8])[H:9]>>[C:1]([O:2][C:3](/[C:4](=[N:6]/[C:5]([H:13])([H:14])[H:15])[H:12])([H:10])[H:11])([H:7])([H:8])[H:9]"
C        2.29467044       0.47032533       0.00212400
O        0.89550837       0.50447534      -0.08581134
C        0.30845102      -0.75894389       0.02119050
C       -1.19078089      -0.69366178      -0.27172635
C       -1.92652677       0.60382807       0.24443589
N       -1.69448210      -0.07812445      -1.35707139
H        2.73016337      -0.12605442      -0.80954234
H        2.63042038       0.05266938       0.96074579
H        2.65262746       1.49552259      -0.08138562
H        0.46484335      -1.17884837       1.02768127
H        0.75474408      -1.45933158      -0.70047919
H       -1.69746632      -1.59012802       0.12851968
H       -1.16848113       1.20663546       0.73734173
H       -2.80592570       0.32616871       0.81441135
H       -2.24776550       1.22546763      -0.63043393
15
Frame=1 idx=001738 GeodesicLength=0.09878982441550614 rxn_smarts="[C:1]([O:2][C:3]([C@@:4]1([H:12])[C:5]([H:13])([H:14])[N:6]1[H:15])([H:10])[H:11])([H:7])([H:8])[H:9]>>[C:1]([O:2][C:3](/[C:4](=[N:6]/[C:5]([H:13])([H:14])[H:15])[H:12])([H:10])[H:11])([H:7])([H:8])[H:9]"
C        2.30117754       0.46876020      -0.00679876
O        0.90154362       0.50253529      -0.08721895
C        0.31574130      -0.76102770       0.02453133
C       -1.18294613      -0.69708214      -0.26191769
C       -1.94903933       0.60162394       0.24610943
N       -1.69067113      -0.06263190      -1.33391251
H        2.73316584      -0.13138991      -0.81763848
H        2.64143515       0.05567079       0.95218594
H        2.65876989       1.49341175      -0.09808000
H        0.47790808      -1.17762748       1.03149448
H        0.75962697      -1.46447771      -0.69585127
H       -1.68883593      -1.59498871       0.13387892
H       -1.20774436       1.18931384       0.78134602
H       -2.85330466       0.32701961       0.77776277
H       -2.21682684       1.25089013      -0.64589125
15
Frame=2 idx=001738 GeodesicLength=0.1976160655410681 rxn_smarts="[C:1]([O:2][C:3]([C@@:4]1([H:12])[C:5]([H:13])([H:14])[N:6]1[H:15])([H:10])[H:11])([H:7])([H:8])[H:9]>>[C:1]([O:2][C:3](/[C:4](=[N:6]/[C:5]([H:13])([H:14])[H:15])[H:12])([H:10])[H:11])([H:7])([H:8])[H:9]"
C        2.30790217       0.46704276      -0.01592906
O        0.90785201       0.50076324      -0.08900320
C        0.32300538      -0.76273894       0.02798029
C       -1.17510324      -0.69991828      -0.25219915
C       -1.97226299       0.59929036       0.24781828
N       -1.68653416      -0.04659728      -1.31060087
H        2.73634454      -0.13731238      -0.82561049
H        2.65247410       0.05884881       0.94358855
H        2.66532043       1.49098613      -0.11536573
H        0.49074135      -1.17562706       1.03557517
H        0.76438884      -1.46962558      -0.69078796
H       -1.68020501      -1.59942944       0.13873709
H       -1.24956698       1.17114799       0.82440534
H       -2.89964376       0.32772663       0.74018628
H       -2.18471270       1.27544305      -0.65879454
15
Frame=3 idx=001738 GeodesicLength=0.29647185636377904 rxn_smarts="[C:1]([O:2][C:3]([C@@:4]1([H:12])[C:5]([H:13])([H:14])[N:6]1[H:15])([H:10])[H:11])([H:7])([H:8])[H:9]>>[C:1]([O:2][C:3](/[C:4](=[N:6]/[C:5]([H:13])([H:14])[H:15])[H:12])([H:10])[H:11])([H:7])([H:8])[H:9]"
C        2.31491014       0.46513529      -0.02530147
O        0.91450439       0.49916387      -0.09122693
C        0.33026265      -0.76403215       0.03156638
C       -1.16722289      -0.70211046      -0.24256840
C       -1.99625061       0.59678609       0.24953882
N       -1.68200514      -0.02990407      -1.28709450
H        2.73975147      -0.14390931      -0.83344277
H        2.66357455       0.06221018       0.93493624
H        2.67238104       1.48817912      -0.13332511
H        0.50333058      -1.17273650       1.03997570
H        0.76903620      -1.47478184      -0.68519798
H       -1.67154501      -1.60343172       0.14297835
H       -1.29402272       1.15211563       0.86646579
H       -2.94498307       0.32821697       0.70168855
H       -2.15172159       1.29909890      -0.66899267
15
Frame=4 idx=001738 GeodesicLength=0.39531703974869753 rxn_smarts="[C:1]([O:2][C:3]([C@@:4]1([H:12])[C:5]([H:13])([H:14])[N:6]1[H:15])([H:10])[H:11])([H:7])([H:8])[H:9]>>[C:1]([O:2][C:3](/[C:4](=[N:6]/[C:5]([H:13])([H:14])[H:15])[H:12])([H:10])[H:11])([H:7])([H:8])[H:9]"
C        2.32226746       0.46299667      -0.03488818
O        0.92157409       0.49772324      -0.09408508
C        0.33754069      -0.76488223       0.03521614
C       -1.15928490      -0.70360559      -0.23302628
C       -2.02102420       0.59409345       0.25126479
N       -1.67713800      -0.01248385      -1.26333798
H        2.74354928      -0.15132958      -0.84096914
H        2.67466123       0.06582480       0.92635559
H        2.68004552       1.48492502      -0.15198030
H        0.51571028      -1.16890058       1.04463332
H        0.77356239      -1.47994998      -0.67913937
H       -1.66280184      -1.60697663       0.14655204
H       -1.34105094       1.13230161       0.90730909
H       -2.98924860       0.32842697       0.66245180
H       -2.11836247       1.32183669      -0.67635644
15
Frame=5 idx=001738 GeodesicLength=0.4941665958230233 rxn_smarts="[C:1]([O:2][C:3]([C@@:4]1([H:12])[C:5]([H:13])([H:14])[N:6]1[H:15])([H:10])[H:11])([H:7])([H:8])[H:9]>>[C:1]([O:2][C:3](/[C:4](=[N:6]/[C:5]([H:13])([H:14])[H:15])[H:12])([H:10])[H:11])([H:7])([H:8])[H:9]"
C        2.33004318       0.46059315      -0.04473327
O        0.92912088       0.49644107      -0.09761517
C        0.34487447      -0.76525872       0.03896639
C       -1.15126397      -0.70435615      -0.22352437
C       -2.04665085       0.59117575       0.25296273
N       -1.67189684       0.00573426      -1.23926321
H        2.74778176      -0.15962469      -0.84822488
H        2.68581647       0.06967206       0.91780378
H        2.68840058       1.48116854      -0.17139332
H        0.52791585      -1.16404138       1.04960706
H        0.77798831      -1.48513846      -0.67254118
H       -1.65394176      -1.61004397       0.14942021
H       -1.39074589       1.11161022       0.94696402
H       -3.03256283       0.32832951       0.62236773
H       -2.08487936       1.34373879      -0.68079653
15
Frame=6 idx=001738 GeodesicLength=0.5930019438715596 rxn_smarts="[C:1]([O:2][C:3]([C@@:4]1([H:12])[C:5]([H:13])([H:14])[N:6]1[H:15])([H:10])[H:11])([H:7])([H:8])[H:9]>>[C:1]([O:2][C:3](/[C:4](=[N:6]/[C:5]([H:13])([H:14])[H:15])[H:12])([H:10])[H:11])([H:7])([H:8])[H:9]"
C        2.33829131       0.45789256      -0.05487973
O        0.93719896       0.49531219      -0.10185946
C        0.35228924      -0.76512412       0.04284842
C       -1.14313529      -0.70430933      -0.21399648
C       -2.07317850       0.58798162       0.25459588
N       -1.66625086       0.02481510      -1.21475887
H        2.75247557      -0.16884821      -0.85521834
H        2.69709655       0.07375216       0.90923082
H        2.69752430       1.47684431      -0.19163828
H        0.53997675      -1.15807433       1.05492867
H        0.78230969      -1.49033561      -0.66533188
H       -1.64493095      -1.61259844       0.15156050
H       -1.44318867       1.08989969       0.98542596
H       -3.07500896       0.32789386       0.58128287
H       -2.05146915       1.36489856      -0.68219006
15
Frame=7 idx=001738 GeodesicLength=0.6918312584738989 rxn_smarts="[C:1]([O:2][C:3]([C@@:4]1([H:12])[C:5]([H:13])([H:14])[N:6]1[H:15])([H:10])[H:11])([H:7])([H:8])[H:9]>>[C:1]([O:2][C:3](/[C:4](=[N:6]/[C:5]([H:13])([H:14])[H:15])[H:12])([H:10])[H:11])([H:7])([H:8])[H:9]"
C        2.34706515       0.45486438      -0.06536861
O        0.94585691       0.49433367      -0.10687269
C        0.35981952      -0.76445514       0.04688694
C       -1.13487469      -0.70342103      -0.20437254
C       -2.10066389       0.58447240       0.25612902
N       -1.66019425       0.04482785      -1.18972177
H        2.75767238      -0.17907618      -0.86195323
H        2.70855629       0.07807988       0.90061649
H        2.70748273       1.47189963      -0.21280431
H        0.55194732      -1.15093755       1.06063929
H        0.78653479      -1.49555309      -0.65746364
H       -1.63572534      -1.61462383       0.15296490
H       -1.49847687       1.06701850       1.02269270
H       -3.11665362       0.32711528       0.53903988
H       -2.01834644       1.38545524      -0.68041242
15
Frame=8 idx=001738 GeodesicLength=0.7906239836471232 rxn_smarts="[C:1]([O:2][C:3]([C@@:4]1([H:12])[C:5]([H:13])([H:14])[N:6]1[H:15])([H:10])[H:11])([H:7])([H:8])[H:9]>>[C:1]([O:2][C:3](/[C:4](=[N:6]/[C:5]([H:13])([H:14])[H:15])[H:12])([H:10])[H:11])([H:7])([H:8])[H:9]"
C        2.35640968       0.45147652      -0.07624215
O        0.95514193       0.49349849      -0.11273135
C        0.36748270      -0.76320804       0.05109742
C       -1.12646469      -0.70163563      -0.19457688
C       -2.12914354       0.58058294       0.25753114
N       -1.65372367       0.06585542      -1.16400254
H        2.76340981      -0.19041947      -0.86836968
H        2.72021640       0.08273150       0.89194524
H        2.71835135       1.46624899      -0.23503486
H        0.56386388      -1.14253357       1.06674482
H        0.79063428      -1.50077060      -0.64887538
H       -1.62629263      -1.61608816       0.15361411
H       -1.55668548       1.04274801       1.05873823
H       -3.15751502       0.32596440       0.49543848
H       -1.98568500       1.40554917      -0.67527660
15
Frame=9 idx=001738 GeodesicLength=0.8893873527600762 rxn_smarts="[C:1]([O:2][C:3]([C@@:4]1([H:12])[C:5]([H:13])([H:14])[N:6]1[H:15])([H:10])[H:11])([H:7])([H:8])[H:9]>>[C:1]([O:2][C:3](/[C:4](=[N:6]/[C:5]([H:13])([H:14])[H:15])[H:12])([H:10])[H:11])([H:7])([H:8])[H:9]"
C        2.36636395       0.44770235      -0.08754743
O        0.96508736       0.49279275      -0.11943821
C        0.37531825      -0.76137065       0.05552603
C       -1.11788657      -0.69891656      -0.18447881
C       -2.15866725       0.57627994       0.25872569
N       -1.64684340       0.08792191      -1.13745441
H        2.76967846      -0.20286107      -0.87455753
H        2.73217517       0.08763691       0.88312959
H        2.73016172       1.45985813      -0.25833113
H        0.57581118      -1.13283495       1.07329367
H        0.79461677      -1.50598663      -0.63952409
H       -1.61659770      -1.61695343       0.15358190
H       -1.61795835       1.01689259       1.09349312
H       -3.19760702       0.32453210       0.45025680
H       -1.95365257       1.42530660      -0.66667519
15
Frame=10 idx=001738 GeodesicLength=0.9880955165724685 rxn_smarts="[C:1]([O:2][C:3]([C@@:4]1([H:12])[C:5]([H:13])([H:14])[N:6]1[H:15])([H:10])[H:11])([H:7])([H:8])[H:9]>>[C:1]([O:2][C:3](/[C:4](=[N:6]/[C:5]([H:13])([H:14])[H:15])[H:12])([H:10])[H:11])([H:7])([H:8])[H:9]"
C        2.37695954       0.44350833      -0.09933611
O        0.97572566       0.49219560      -0.12702952
C        0.38334884      -0.75890374       0.06020874
C       -1.10912692      -0.69520637      -0.17394794
C       -2.18927088       0.57149894       0.25964314
N       -1.63955591       0.11108505      -1.10987637
H        2.77647605      -0.21644985      -0.88051860
H        2.74448633       0.09281359       0.87409641
H        2.74295734       1.45264537      -0.28278535
H        0.58785351      -1.12176227       1.08029732
H        0.79845614      -1.51116604      -0.62934447
H       -1.60661420      -1.61715764       0.15290322
H       -1.68242844       0.98918335       1.12684814
H       -3.23688742       0.32286851       0.40324256
H       -1.92237964       1.44484717      -0.65440116
15
Frame=11 idx=001738 GeodesicLength=1.0867339881529965 rxn_smarts="[C:1]([O:2][C:3]([C@@:4]1([H:12])[C:5]([H:13])([H:14])[N:6]1[H:15])([H:10])[H:11])([H:7])([H:8])[H:9]>>[C:1]([O:2][C:3](/[C:4](=[N:6]/[C:5]([H:13])([H:14])[H:15])[H:12])([H:10])[H:11])([H:7])([H:8])[H:9]"
C        2.38822046       0.43886370      -0.11166151
O        0.98708048       0.49168467      -0.13554863
C        0.39160023      -0.75577905       0.06518177
C       -1.10017384      -0.69045521      -0.16284057
C       -2.22098688       0.56618441       0.26020408
N       -1.63187620       0.13540575      -1.08105939
H        2.78379941      -0.23124124      -0.88625725
H        2.75720010       0.09828734       0.86478348
H        2.75676475       1.44453949      -0.30849711
H        0.60007221      -1.10925290       1.08777568
H        0.80212871      -1.51628953      -0.61828241
H       -1.59631285      -1.61665176       0.15162589
H       -1.75023851       0.95933582       1.15866166
H       -3.27527005       0.32106297       0.35414405
H       -1.89200801       1.46430553      -0.63822970
15
Frame=12 idx=001738 GeodesicLength=1.1852924377755913 rxn_smarts="[C:1]([O:2][C:3]([C@@:4]1([H:12])[C:5]([H:13])([H:14])[N:6]1[H:15])([H:10])[H:11])([H:7])([H:8])[H:9]>>[C:1]([O:2][C:3](/[C:4](=[N:6]/[C:5]([H:13])([H:14])[H:15])[H:12])([H:10])[H:11])([H:7])([H:8])[H:9]"
C        2.40015412       0.43374334      -0.12458520
O        0.99916265       0.49124028      -0.14505544
C        0.40009602      -0.75197854       0.07048630
C       -1.09101254      -0.68462270      -0.15100500
C       -2.25383519       0.56028329       0.26032387
N       -1.62382027       0.16096957      -1.05077860
H        2.79163412      -0.24732615      -0.89175868
H        2.77034849       0.10412923       0.85514763
H        2.77158770       1.43547762      -0.33562143
H        0.61255867      -1.09525085       1.09576568
H        0.80560270      -1.52136525      -0.60627822
H       -1.58565408      -1.61541578       0.14978561
H       -1.82153688       0.92701917       1.18877349
H       -3.31261121       0.31924631       0.30268002
H       -1.86267431       1.48385046      -0.61788004
15
Frame=13 idx=001738 GeodesicLength=1.2837395786318324 rxn_smarts="[C:1]([O:2][C:3]([C@@:4]1([H:12])[C:5]([H:13])([H:14])[N:6]1[H:15])([H:10])[H:11])([H:7])([H:8])[H:9]>>[C:1]([O:2][C:3](/[C:4](=[N:6]/[C:5]([H:13])([H:14])[H:15])[H:12])([H:10])[H:11])([H:7])([H:8])[H:9]"
C        2.41277370       0.42810345      -0.13817862
O        1.01197856       0.49080634      -0.15552244
C        0.40886038      -0.74745227       0.07619772
C       -1.08164592      -0.67763570      -0.13820605
C       -2.28783960       0.55372396       0.25984883
N       -1.61540179       0.18778989      -1.01871248
H        2.79991434      -0.26464534      -0.89711572
H        2.78404615       0.11026423       0.84499921
H        2.78742285       1.42535520      -0.36417060
H        0.62541972      -1.07967413       1.10427080
H        0.80884541      -1.52629750      -0.59323475
H       -1.57464080      -1.61330561       0.14749771
H       -1.89652727       0.89188379       1.21683800
H       -3.34873373       0.31758722       0.24854333
H       -1.83447200       1.50349647      -0.59305495
15
Frame=14 idx=001738 GeodesicLength=1.3820808311216068 rxn_smarts="[C:1]([O:2][C:3]([C@@:4]1([H:12])[C:5]([H:13])([H:14])[N:6]1[H:15])([H:10])[H:11])([H:7])([H:8])[H:9]>>[C:1]([O:2][C:3](/[C:4](=[N:6]/[C:5]([H:13])([H:14])[H:15])[H:12])([H:10])[H:11])([H:7])([H:8])[H:9]"
C        2.42606048       0.42191480      -0.15252837
O        1.02551012       0.49035330      -0.16700131
C        0.41792306      -0.74218890       0.08239057
C       -1.07205508      -0.66945659      -0.12423499
C       -2.32300899       0.54645792       0.25864566
N       -1.60663921       0.21597672      -0.98456314
H        2.80858982      -0.28329343      -0.90233897
H        2.79833855       0.11676416       0.83426302
H        2.80422105       1.41410507      -0.39434527
H        0.63878572      -1.06247089       1.11335998
H        0.81183115      -1.53110497      -0.57905313
H       -1.56321624      -1.61030345       0.14480783
H       -1.97540906       0.85351412       1.24255307
H       -3.38337596       0.31632342       0.19139341
H       -1.80755540       1.52340874      -0.56334834
15
Frame=15 idx=001738 GeodesicLength=1.4803191181673805 rxn_smarts="[C:1]([O:2][C:3]([C@@:4]1([H:12])[C:5]([H:13])([H:14])[N:6]1[H:15])([H:10])[H:11])([H:7])([H:8])[H:9]>>[C:1]([O:2][C:3](/[C:4](=[N:6]/[C:5]([H:13])([H:14])[H:15])[H:12])([H:10])[H:11])([H:7])([H:8])[H:9]"
C        2.43996694       0.41515578      -0.16775281
O        1.03973332       0.48986036      -0.17960613
C        0.42729582      -0.73616865       0.08916069
C       -1.06221917      -0.66005057      -0.10889552
C       -2.35930957       0.53840652       0.25656962
N       -1.59753187       0.24573372      -0.94793608
H        2.81756036      -0.30352189      -0.90730817
H        2.81323617       0.12390216       0.82288023
H        2.82191560       1.40163417      -0.42655891
H        0.65279525      -1.04349918       1.12313217
H        0.81447141      -1.53588247      -0.56354081
H       -1.55131914      -1.60644135       0.14162202
H       -2.05836921       0.81129016       1.26556809
H       -3.41616036       0.31577045       0.13076016
H       -1.78206554       1.54381080      -0.52809455
15
Frame=16 idx=001738 GeodesicLength=1.578336780126276 rxn_smarts="[C:1]([O:2][C:3]([C@@:4]1([H:12])[C:5]([H:13])([H:14])[N:6]1[H:15])([H:10])[H:11])([H:7])([H:8])[H:9]>>[C:1]([O:2][C:3](/[C:4](=[N:6]/[C:5]([H:13])([H:14])[H:15])[H:12])([H:10])[H:11])([H:7])([H:8])[H:9]"
C        2.45441096       0.40769804      -0.18402366
O        1.05459681       0.48920657      -0.19314168
C        0.43699237      -0.72923164       0.09671077
C       -1.05208941      -0.64923064      -0.09171439
C       -2.39672457       0.52949095       0.25330936
N       -1.58786886       0.27703557      -0.90825888
H        2.82662555      -0.32510291      -0.91239748
H        2.82881304       0.13134454       0.81034445
H        2.84036098       1.38765240      -0.46077064
H        0.66745338      -1.02253258       1.13361841
H        0.81680018      -1.54029722      -0.54646218
H       -1.53891545      -1.60130767       0.13814268
H       -2.14596854       0.76479934       1.28509151
H       -3.44654660       0.31600819       0.06623068
H       -1.75793984       1.56446706      -0.48667896
