15
Frame=0 idx=009717 GeodesicLength=0.0 rxn_smarts="[C:1]([C@@:2]([O:3][H:12])([C@@:4]([O:5][H:14])([C:6](=[O:7])[H:15])[H:13])[H:11])([H:8])([H:9])[H:10]>>[C-:6]#[O+:7].[C:1](/[C:2]([O:3][H:12])=[C:4](\[O:5][H:14])[H:13])([H:8])([H:9])[H:10].[H:11][H:15]"
C       -0.05609130      -0.03471107      -1.79759794
C       -0.44426937      -0.37552448      -0.39462669
O       -1.61976525      -1.06609325      -0.31740680
C        0.48547206      -0.53654259       0.64695506
O        1.80645048      -0.27198355       0.34211926
C        0.02133872       0.87285244       1.85261873
O        0.92280534       1.42503576       2.32519025
H       -0.90763345       0.37256392      -2.34080077
H        0.76326325       0.67983151      -1.80173174
H        0.27862703      -0.94219112      -2.30739265
H       -0.99193324       1.07541412       0.01815497
H       -1.73901636      -1.41861070       0.56853894
H        0.33244801      -1.39581233       1.30211346
H        2.18806275       0.24969123       1.05972682
H       -1.03975868       1.36608012       0.84413905
15
Frame=1 idx=009717 GeodesicLength=0.12429506254519586 rxn_smarts="[C:1]([C@@:2]([O:3][H:12])([C@@:4]([O:5][H:14])([C:6](=[O:7])[H:15])[H:13])[H:11])([H:8])([H:9])[H:10]>>[C-:6]#[O+:7].[C:1](/[C:2]([O:3][H:12])=[C:4](\[O:5][H:14])[H:13])([H:8])([H:9])[H:10].[H:11][H:15]"
C       -0.05578620      -0.01201026      -1.78571632
C       -0.45070507      -0.38039277      -0.39041403
O       -1.60292023      -1.11482892      -0.35442834
C        0.46648772      -0.53369698       0.66441751
O        1.80197926      -0.35199334       0.36202719
C        0.06674021       0.93782085       1.83540290
O        0.99255551       1.48900566       2.25976785
H       -0.91042957       0.37784514      -2.33704703
H        0.73789253       0.73089601      -1.77392930
H        0.31632885      -0.89984210      -2.30349114
H       -1.05400141       1.05141048       0.02318909
H       -1.73188355      -1.48870006       0.52111070
H        0.28338022      -1.35952509       1.35534620
H        2.20664329       0.18030661       1.05855162
H       -1.06628155       1.37370475       0.86521311
15
Frame=2 idx=009717 GeodesicLength=0.2456085483729017 rxn_smarts="[C:1]([C@@:2]([O:3][H:12])([C@@:4]([O:5][H:14])([C:6](=[O:7])[H:15])[H:13])[H:11])([H:8])([H:9])[H:10]>>[C-:6]#[O+:7].[C:1](/[C:2]([O:3][H:12])=[C:4](\[O:5][H:14])[H:13])([H:8])([H:9])[H:10].[H:11][H:15]"
C       -0.05604905       0.01143969      -1.77260311
C       -0.45745156      -0.38569338      -0.38598900
O       -1.58292328      -1.16357453      -0.39105497
C        0.44733642      -0.53057221       0.68189530
O        1.79295771      -0.43159604       0.38587565
C        0.11262089       1.00264172       1.81193009
O        1.06250604       1.54818789       2.18786989
H       -0.91311104       0.38515285      -2.33159914
H        0.71206618       0.78034521      -1.74478947
H        0.35174240      -0.85533428      -2.29853691
H       -1.11633027       1.02431127       0.03057254
H       -1.71833333      -1.56107592       0.47280756
H        0.23263374      -1.31914505       1.40766592
H        2.22033631       0.11077808       1.06039192
H       -1.08800118       1.38413469       0.88556371
15
Frame=3 idx=009717 GeodesicLength=0.36421500776886745 rxn_smarts="[C:1]([C@@:2]([O:3][H:12])([C@@:4]([O:5][H:14])([C:6](=[O:7])[H:15])[H:13])[H:11])([H:8])([H:9])[H:10]>>[C-:6]#[O+:7].[C:1](/[C:2]([O:3][H:12])=[C:4](\[O:5][H:14])[H:13])([H:8])([H:9])[H:10].[H:11][H:15]"
C       -0.05736037       0.03473488      -1.75894830
C       -0.46435175      -0.39116512      -0.38159094
O       -1.56019970      -1.21111578      -0.42639081
C        0.42843457      -0.52703280       0.69888852
O        1.77985844      -0.50847243       0.41342772
C        0.15781583       1.06542900       1.78343649
O        1.13089733       1.59969119       2.11387270
H       -0.91649739       0.39321602      -2.32501612
H        0.68522282       0.82764102      -1.71603617
H        0.38414336      -0.81010621      -2.29273778
H       -1.17704154       0.99522730       0.03976521
H       -1.69790613      -1.63418133       0.42467569
H        0.18160967      -1.27557556       1.45725737
H        2.22910171       0.04283866       1.06582506
H       -1.10372686       1.39887115       0.90357136
15
Frame=4 idx=009717 GeodesicLength=0.4805944706928721 rxn_smarts="[C:1]([C@@:2]([O:3][H:12])([C@@:4]([O:5][H:14])([C:6](=[O:7])[H:15])[H:13])[H:11])([H:8])([H:9])[H:10]>>[C-:6]#[O+:7].[C:1](/[C:2]([O:3][H:12])=[C:4](\[O:5][H:14])[H:13])([H:8])([H:9])[H:10].[H:11][H:15]"
C       -0.06008962       0.05718570      -1.74543283
C       -0.47128502      -0.39659592      -0.37743565
O       -1.53523017      -1.25669893      -0.45984498
C        0.41009795      -0.52295144       0.71500896
O        1.76338654      -0.58110400       0.44415149
C        0.20169300       1.12491952       1.75137872
O        1.19671269       1.64198773       2.04199285
H       -0.92126431       0.40081511      -2.31795132
H        0.65673771       0.87261317      -1.68910610
H        0.41321468      -0.76522935      -2.28640691
H       -1.23487034       0.96520922       0.05019831
H       -1.67064307      -1.70658640       0.37755897
H        0.13140761      -1.22975835       1.50287307
H        2.23336753      -0.02248335       1.07508496
H       -1.11323518       1.41867728       0.91793046
15
Frame=5 idx=009717 GeodesicLength=0.595141236283082 rxn_smarts="[C:1]([C@@:2]([O:3][H:12])([C@@:4]([O:5][H:14])([C:6](=[O:7])[H:15])[H:13])[H:11])([H:8])([H:9])[H:10]>>[C-:6]#[O+:7].[C:1](/[C:2]([O:3][H:12])=[C:4](\[O:5][H:14])[H:13])([H:8])([H:9])[H:10].[H:11][H:15]"
C       -0.06442396       0.07841366      -1.73251389
C       -0.47812521      -0.40189800      -0.37366573
O       -1.50830048      -1.30007019      -0.49120437
C        0.39252777      -0.51828765       0.73001015
O        1.74421913      -0.64890410       0.47743928
C        0.24413764       1.18054938       1.71691781
O        1.25960276       1.67487505       1.97524595
H       -0.92779275       0.40704956      -2.31088036
H        0.62605413       0.91537086      -1.66480543
H        0.43903364      -0.72124362      -2.27981529
H       -1.28931770       0.93488817       0.06151351
H       -1.63708793      -1.77694285       0.33202742
H        0.08271037      -1.18252390       1.54383237
H        2.23373657      -0.08481180       1.08802413
H       -1.11697400       1.44353542       0.92787446
15
Frame=6 idx=009717 GeodesicLength=0.7083337949663229 rxn_smarts="[C:1]([C@@:2]([O:3][H:12])([C@@:4]([O:5][H:14])([C:6](=[O:7])[H:15])[H:13])[H:11])([H:8])([H:9])[H:10]>>[C-:6]#[O+:7].[C:1](/[C:2]([O:3][H:12])=[C:4](\[O:5][H:14])[H:13])([H:8])([H:9])[H:10].[H:11][H:15]"
C       -0.07043399       0.09825197      -1.72059718
C       -0.48481136      -0.40699017      -0.37039764
O       -1.47978817      -1.34110892      -0.52041268
C        0.37585939      -0.51302884       0.74376314
O        1.72298334      -0.71183057       0.51276637
C        0.28535879       1.23217297       1.68102451
O        1.31964311       1.69906035       1.91551720
H       -0.93625630       0.41140600      -2.30428605
H        0.59289675       0.95605714      -1.64369486
H        0.46171051      -0.67842513      -2.27329189
H       -1.34013914       0.90488753       0.07325596
H       -1.59792097      -1.84444163       0.28840105
H        0.03594524      -1.13448256       1.58000404
H        2.23084291      -0.14419141       1.10450262
H       -1.11589011       1.47266325       0.93344540
15
Frame=7 idx=009717 GeodesicLength=0.8205121621428366 rxn_smarts="[C:1]([C@@:2]([O:3][H:12])([C@@:4]([O:5][H:14])([C:6](=[O:7])[H:15])[H:13])[H:11])([H:8])([H:9])[H:10]>>[C-:6]#[O+:7].[C:1](/[C:2]([O:3][H:12])=[C:4](\[O:5][H:14])[H:13])([H:8])([H:9])[H:10].[H:11][H:15]"
C       -0.07804799       0.11675409      -1.70981531
C       -0.49126715      -0.41189581      -0.36767917
O       -1.44978318      -1.37998905      -0.54768304
C        0.36013705      -0.50725154       0.75624214
O        1.70007056      -0.77032879       0.54977893
C        0.32582264       1.28002583       1.64406021
O        1.37718053       1.71566309       1.86331660
H       -0.94658811       0.41363222      -2.29840329
H        0.55706246       0.99494918      -1.62578290
H        0.48161126      -0.63663981      -2.26700810
H       -1.38759259       0.87534466       0.08518436
H       -1.55404135      -1.90839640       0.24679330
H       -0.00881078      -1.08595951       1.61156460
H        2.22518638      -0.20094173       1.12422160
H       -1.11093972       1.50503357       0.93521008
15
Frame=8 idx=009717 GeodesicLength=0.9319934220582102 rxn_smarts="[C:1]([C@@:2]([O:3][H:12])([C@@:4]([O:5][H:14])([C:6](=[O:7])[H:15])[H:13])[H:11])([H:8])([H:9])[H:10]>>[C-:6]#[O+:7].[C:1](/[C:2]([O:3][H:12])=[C:4](\[O:5][H:14])[H:13])([H:8])([H:9])[H:10].[H:11][H:15]"
C       -0.08713711       0.13407086      -1.70020301
C       -0.49742542      -0.41667072      -0.36554198
O       -1.41826325      -1.41696559      -0.57333354
C        0.34536894      -0.50106529       0.76747326
O        1.67572211      -0.82495825       0.58827872
C        0.36607577       1.32442012       1.60609653
O        1.43261427       1.72589680       1.81833717
H       -0.95860589       0.41365403      -2.29338957
H        0.51844728       1.03231870      -1.61088342
H        0.49912410      -0.59558407      -2.26108317
H       -1.43208137       0.84620905       0.09704452
H       -1.50640015      -1.96836511       0.20724153
H       -0.05160073      -1.03709200       1.63883864
H        2.21711858      -0.25546375       1.14697689
H       -1.10295714       1.53959521       0.93414741
15
Frame=9 idx=009717 GeodesicLength=1.043005971020793 rxn_smarts="[C:1]([C@@:2]([O:3][H:12])([C@@:4]([O:5][H:14])([C:6](=[O:7])[H:15])[H:13])[H:11])([H:8])([H:9])[H:10]>>[C-:6]#[O+:7].[C:1](/[C:2]([O:3][H:12])=[C:4](\[O:5][H:14])[H:13])([H:8])([H:9])[H:10].[H:11][H:15]"
C       -0.09757194       0.15037850      -1.69172475
C       -0.50322958      -0.42138997      -0.36399785
O       -1.38515258      -1.45227316      -0.59769519
C        0.33153916      -0.49457567       0.77751186
O        1.65005914      -0.87624107       0.62818694
C        0.40666064       1.36566147       1.56698200
O        1.48628685       1.73078111       1.78004017
H       -0.97208928       0.41150088      -2.28932168
H        0.47699756       1.06836142      -1.59871745
H        0.51457499      -0.55490948      -2.25557376
H       -1.47413135       0.81723652       0.10859759
H       -1.45584421      -2.02418113       0.16968846
H       -0.09250571      -0.98789481       1.66217840
H        2.20687738      -0.30807566       1.17257640
H       -1.09247107       1.57562106       0.93126886
15
Frame=10 idx=009717 GeodesicLength=1.153740376663285 rxn_smarts="[C:1]([C@@:2]([O:3][H:12])([C@@:4]([O:5][H:14])([C:6](=[O:7])[H:15])[H:13])[H:11])([H:8])([H:9])[H:10]>>[C-:6]#[O+:7].[C:1](/[C:2]([O:3][H:12])=[C:4](\[O:5][H:14])[H:13])([H:8])([H:9])[H:10].[H:11][H:15]"
C       -0.10922118       0.16589560      -1.68427072
C       -0.50862554      -0.42614680      -0.36304804
O       -1.35024214      -1.48618058      -0.62115258
C        0.31859770      -0.48790828       0.78643835
O        1.62308155      -0.92466957       0.66953266
C        0.44809432       1.40394356       1.52651899
O        1.53849719       1.73125509       1.74740251
H       -0.98678589       0.40726018      -2.28620907
H        0.43264137       1.10327785      -1.58889280
H        0.52829658      -0.51415563      -2.25046584
H       -1.51433296       0.78800538       0.11963671
H       -1.40316631      -2.07581330       0.13405967
H       -0.13165168      -0.93831355       1.68192238
H        2.19455341      -0.35909155       1.20093991
H       -1.07973641       1.61264161       0.92758787
15
Frame=11 idx=009717 GeodesicLength=1.2643306038813455 rxn_smarts="[C:1]([C@@:2]([O:3][H:12])([C@@:4]([O:5][H:14])([C:6](=[O:7])[H:15])[H:13])[H:11])([H:8])([H:9])[H:10]>>[C-:6]#[O+:7].[C:1](/[C:2]([O:3][H:12])=[C:4](\[O:5][H:14])[H:13])([H:8])([H:9])[H:10].[H:11][H:15]"
C       -0.12200757       0.18084532      -1.67769450
C       -0.51356654      -0.43104837      -0.36268296
O       -1.31324948      -1.51893289      -0.64407992
C        0.30647488      -0.48117447       0.79435032
O        1.59470515      -0.97063116       0.71242341
C        0.49086441       1.43937235       1.48444581
O        1.58949460       1.72801886       1.71947475
H       -1.00248923       0.40105359      -2.28400098
H        0.38525399       1.13722716      -1.58098362
H        0.54052329      -0.47282344      -2.24570907
H       -1.55333116       0.75790884       0.13002786
H       -1.34898802      -2.12342608       0.10022638
H       -0.16917596      -0.88823847       1.69836721
H        2.18014774      -0.40873923       1.23204846
H       -1.06465611       1.65058801       0.92378685
15
Frame=12 idx=009717 GeodesicLength=1.3749251930843327 rxn_smarts="[C:1]([C@@:2]([O:3][H:12])([C@@:4]([O:5][H:14])([C:6](=[O:7])[H:15])[H:13])[H:11])([H:8])([H:9])[H:10]>>[C-:6]#[O+:7].[C:1](/[C:2]([O:3][H:12])=[C:4](\[O:5][H:14])[H:13])([H:8])([H:9])[H:10].[H:11][H:15]"
C       -0.13588587       0.19547292      -1.67181427
C       -0.51801866      -0.43620762      -0.36288113
O       -1.27381364      -1.55074355      -0.66687759
C        0.29506364      -0.47448939       0.80139210
O        1.56476466      -1.01445416       0.75707994
C        0.53542674       1.47193129       1.44055116
O        1.63958569       1.72167458       1.69505104
H       -1.01901408       0.39302079      -2.28262832
H        0.33464292       1.17036774      -1.57449751
H        0.55146709      -0.43032874      -2.24120802
H       -1.59181454       0.72618343       0.13970600
H       -1.29379665      -2.16730530       0.06798091
H       -0.20527293      -0.83753387       1.71179179
H        2.16357997      -0.45720852       1.26600398
H       -1.04691433       1.68962040       0.92034992
15
Frame=13 idx=009717 GeodesicLength=1.4854737195394694 rxn_smarts="[C:1]([C@@:2]([O:3][H:12])([C@@:4]([O:5][H:14])([C:6](=[O:7])[H:15])[H:13])[H:11])([H:8])([H:9])[H:10]>>[C-:6]#[O+:7].[C:1](/[C:2]([O:3][H:12])=[C:4](\[O:5][H:14])[H:13])([H:8])([H:9])[H:10].[H:11][H:15]"
C       -0.15098564       0.20989011      -1.66653170
C       -0.52193334      -0.44171468      -0.36365737
O       -1.23160282      -1.58171525      -0.68972496
C        0.28433674      -0.46783467       0.80754733
O        1.53309140      -1.05618665       0.80352698
C        0.58235857       1.50165859       1.39418671
O        1.68866557       1.71228041       1.67475522
H       -1.03636494       0.38324509      -2.28195327
H        0.28057193       1.20262861      -1.56917930
H        0.56092056      -0.38634832      -2.23694446
H       -1.63032550       0.69202443       0.14853717
H       -1.23776305      -2.20779939       0.03718546
H       -0.23992676      -0.78589663       1.72227523
H        2.14473535      -0.50448546       1.30273986
H       -1.02577807       1.73025380       0.91723710
15
Frame=14 idx=009717 GeodesicLength=1.5961753329875217 rxn_smarts="[C:1]([C@@:2]([O:3][H:12])([C@@:4]([O:5][H:14])([C:6](=[O:7])[H:15])[H:13])[H:11])([H:8])([H:9])[H:10]>>[C-:6]#[O+:7].[C:1](/[C:2]([O:3][H:12])=[C:4](\[O:5][H:14])[H:13])([H:8])([H:9])[H:10].[H:11][H:15]"
C       -0.16731188       0.22440875      -1.66157494
C       -0.52530141      -0.44767531      -0.36496542
O       -1.18605208      -1.61198113      -0.71308797
C        0.27407824      -0.46133223       0.81306617
O        1.49930757      -1.09609766       0.85224429
C        0.63211514       1.52826776       1.34524670
O        1.73724010       1.70040510       1.65653021
H       -1.05436576       0.37192829      -2.28187109
H        0.22272389       1.23418788      -1.56434749
H        0.56906809      -0.34009375      -2.23270228
H       -1.66963542       0.65435069       0.15647943
H       -1.18105884      -2.24531650       0.00742860
H       -0.27347749      -0.73313359       1.73006233
H        2.12329618      -0.55076551       1.34269704
H       -1.00062632       1.77284721       0.91479442
15
Frame=15 idx=009717 GeodesicLength=1.7070464850672635 rxn_smarts="[C:1]([C@@:2]([O:3][H:12])([C@@:4]([O:5][H:14])([C:6](=[O:7])[H:15])[H:13])[H:11])([H:8])([H:9])[H:10]>>[C-:6]#[O+:7].[C:1](/[C:2]([O:3][H:12])=[C:4](\[O:5][H:14])[H:13])([H:8])([H:9])[H:10].[H:11][H:15]"
C       -0.18488199       0.23939993      -1.65651459
C       -0.52810057      -0.45418952      -0.36670925
O       -1.13641976      -1.64156815      -0.73740314
C        0.26395235      -0.45509691       0.81825554
O        1.46278406      -1.13434930       0.90386330
C        0.68506565       1.55132009       1.29360085
O        1.78605033       1.68643138       1.63763372
H       -1.07275023       0.35934618      -2.28214544
H        0.16071703       1.26522431      -1.55909864
H        0.57602129      -0.29064361      -2.22802049
H       -1.71052014       0.61180642       0.16342738
H       -1.12353922      -2.28032894      -0.02187960
H       -0.30640451      -0.67905592       1.73530179
H        2.09865821      -0.59614871       1.38644594
H       -0.97063251       1.81785273       0.91324264
15
Frame=16 idx=009717 GeodesicLength=1.81809346922299 rxn_smarts="[C:1]([C@@:2]([O:3][H:12])([C@@:4]([O:5][H:14])([C:6](=[O:7])[H:15])[H:13])[H:11])([H:8])([H:9])[H:10]>>[C-:6]#[O+:7].[C:1](/[C:2]([O:3][H:12])=[C:4](\[O:5][H:14])[H:13])([H:8])([H:9])[H:10].[H:11][H:15]"
C       -0.20346605       0.25554912      -1.65046899
C       -0.53032132      -0.46136221      -0.36863992
O       -1.08149066      -1.67038506      -0.76338209
C        0.25318972      -0.44938285       0.82383595
O        1.42233954      -1.17116369       0.95971130
C        0.74100555       1.57000246       1.23992771
O        1.83734386       1.67082382       1.61077665
H       -1.09074466       0.34601865      -2.28242245
H        0.09410779       1.29619698      -1.55171908
H        0.58241080      -0.23639881      -2.22174800
H       -1.75407470       0.56246104       0.16916786
H       -1.06473227      -2.31337914      -0.05183909
H       -0.33989706      -0.62372853       1.73825775
H        2.06961160      -0.64073790       1.43525087
H       -0.93528215       1.86548612       0.91329153
