11
Frame=0 idx=005393 GeodesicLength=0.0 rxn_smarts="[N:1]([c:2]1[c:3]([H:9])[c:4]([H:10])[n:5][n:6]1[H:11])([H:7])[H:8]>>[N:1]([c+:2]1[c:3]([H:9])[c-:4][n:5]([H:10])[n:6]1[H:11])([H:7])[H:8]"
N       -1.78929234      -0.04355116       0.07923261
C       -0.41799314      -0.06221860       0.06671869
C        0.47613896      -1.10330463       0.18312255
C        1.77405538      -0.55017224       0.30114865
N        1.63095191       0.82622084       0.19489823
N        0.29503499       1.08244789      -0.01078287
H       -2.22315278      -0.94252732      -0.03711036
H       -2.24176551       0.68398412      -0.44723294
H        0.22186958      -2.15121939       0.20842715
H        2.32479185       0.23767378      -0.61066406
H       -0.05063886       2.02266673       0.07224239
11
Frame=1 idx=005393 GeodesicLength=0.032581490033045696 rxn_smarts="[N:1]([c:2]1[c:3]([H:9])[c:4]([H:10])[n:5][n:6]1[H:11])([H:7])[H:8]>>[N:1]([c+:2]1[c:3]([H:9])[c-:4][n:5]([H:10])[n:6]1[H:11])([H:7])[H:8]"
N       -1.79195694      -0.03929266       0.08372682
C       -0.41991115      -0.06109036       0.06505677
C        0.47386160      -1.10232967       0.17956086
C        1.77058708      -0.54736635       0.30426408
N        1.62849314       0.82452094       0.19528177
N        0.29462186       1.08270967      -0.02020791
H       -2.22658848      -0.94028780      -0.01330852
H       -2.24302417       0.67495044      -0.46209531
H        0.22107371      -2.15077043       0.19359598
H        2.34408321       0.23747952      -0.60408873
H       -0.05123986       2.02147668       0.07821418
11
Frame=2 idx=005393 GeodesicLength=0.06516197832692175 rxn_smarts="[N:1]([c:2]1[c:3]([H:9])[c:4]([H:10])[n:5][n:6]1[H:11])([H:7])[H:8]>>[N:1]([c+:2]1[c:3]([H:9])[c-:4][n:5]([H:10])[n:6]1[H:11])([H:7])[H:8]"
N       -1.79463462      -0.03506752       0.08825234
C       -0.42187186      -0.05995304       0.06378039
C        0.47153938      -1.10137986       0.17610197
C        1.76708909      -0.54462712       0.30715875
N        1.62599708       0.82279122       0.19565410
N        0.29416207       1.08294041      -0.02916236
H       -2.22978705      -0.93773149       0.00990012
H       -2.24440835       0.66568367      -0.47610332
H        0.22026244      -2.15023157       0.17845762
H        2.36343970       0.23733953      -0.59707252
H       -0.05178789       2.02023578       0.08303290
11
Frame=3 idx=005393 GeodesicLength=0.09774350293632858 rxn_smarts="[N:1]([c:2]1[c:3]([H:9])[c:4]([H:10])[n:5][n:6]1[H:11])([H:7])[H:8]>>[N:1]([c+:2]1[c:3]([H:9])[c-:4][n:5]([H:10])[n:6]1[H:11])([H:7])[H:8]"
N       -1.79732057      -0.03091032       0.09281398
C       -0.42386732      -0.05882409       0.06276165
C        0.46918278      -1.10045835       0.17273927
C        1.76356826      -0.54194316       0.30984868
N        1.62346314       0.82103741       0.19595717
N        0.29365500       1.08312742      -0.03777908
H       -2.23275302      -0.93491936       0.03235232
H       -2.24595970       0.65630238      -0.48910119
H        0.21944625      -2.14959458       0.16318072
H        2.38289419       0.23722354      -0.58960605
H       -0.05230902       2.01895911       0.08683254
11
Frame=4 idx=005393 GeodesicLength=0.13031900115319867 rxn_smarts="[N:1]([c:2]1[c:3]([H:9])[c:4]([H:10])[n:5][n:6]1[H:11])([H:7])[H:8]>>[N:1]([c+:2]1[c:3]([H:9])[c-:4][n:5]([H:10])[n:6]1[H:11])([H:7])[H:8]"
N       -1.80000788      -0.02685395       0.09739890
C       -0.42588921      -0.05772076       0.06190416
C        0.46680160      -1.09956846       0.16945320
C        1.76003538      -0.53930738       0.31230267
N        1.62089506       0.81926241       0.19613398
N        0.29309991       1.08326183      -0.04612993
H       -2.23549092      -0.93191940       0.05387412
H       -2.24769961       0.64692784      -0.50098754
H        0.21862545      -2.14885819       0.14800016
H        2.40244805       0.23712644      -0.58172124
H       -0.05281782       2.01764963       0.08977152
11
Frame=5 idx=005393 GeodesicLength=0.16287551485385796 rxn_smarts="[N:1]([c:2]1[c:3]([H:9])[c:4]([H:10])[n:5][n:6]1[H:11])([H:7])[H:8]>>[N:1]([c+:2]1[c:3]([H:9])[c-:4][n:5]([H:10])[n:6]1[H:11])([H:7])[H:8]"
N       -1.80269289      -0.02295134       0.10187182
C       -0.42792676      -0.05665310       0.06120700
C        0.46441751      -1.09871241       0.16622551
C        1.75654537      -0.53672800       0.31428685
N        1.61832862       0.81746252       0.19602734
N        0.29248068       1.08336202      -0.05411138
H       -2.23798919      -0.92883433       0.07401327
H       -2.24958193       0.63771836      -0.51180203
H        0.21776480      -2.14803489       0.13365357
H        2.42198193       0.23706642      -0.57373636
H       -0.05332813       2.01630475       0.09236441
11
Frame=6 idx=005393 GeodesicLength=0.1953243287566831 rxn_smarts="[N:1]([c:2]1[c:3]([H:9])[c:4]([H:10])[n:5][n:6]1[H:11])([H:7])[H:8]>>[N:1]([c+:2]1[c:3]([H:9])[c-:4][n:5]([H:10])[n:6]1[H:11])([H:7])[H:8]"
N       -1.80538631      -0.01925327       0.10600589
C       -0.42997097      -0.05561114       0.06084778
C        0.46205011      -1.09787656       0.16315224
C        1.75318479      -0.53421802       0.31543583
N        1.61583100       0.81562909       0.19537523
N        0.29176542       1.08347655      -0.06144146
H       -2.24025439      -0.92578079       0.09222859
H       -2.25143391       0.62879627      -0.52183456
H        0.21679926      -2.14714977       0.12106509
H        2.44126404       0.23707806      -0.56620314
H       -0.05384903       2.01490958       0.09536850
11
Frame=7 idx=005393 GeodesicLength=0.22778766813367793 rxn_smarts="[N:1]([c:2]1[c:3]([H:9])[c:4]([H:10])[n:5][n:6]1[H:11])([H:7])[H:8]>>[N:1]([c+:2]1[c:3]([H:9])[c-:4][n:5]([H:10])[n:6]1[H:11])([H:7])[H:8]"
N       -1.80808156      -0.01569862       0.10999109
C       -0.43202546      -0.05460412       0.06058046
C        0.45968770      -1.09706102       0.16013160
C        1.74988954      -0.53175506       0.31606512
N        1.61335010       0.81378453       0.19437907
N        0.29097419       1.08358515      -0.06843838
H       -2.24235038      -0.92273488       0.10917447
H       -2.25337751       0.62010296      -0.53102523
H        0.21577218      -2.14623297       0.10946109
H        2.46054804       0.23713180      -0.55865590
H       -0.05438686       2.01348223       0.09833661
11
Frame=8 idx=005393 GeodesicLength=0.26027591344404566 rxn_smarts="[N:1]([c:2]1[c:3]([H:9])[c:4]([H:10])[n:5][n:6]1[H:11])([H:7])[H:8]>>[N:1]([c+:2]1[c:3]([H:9])[c-:4][n:5]([H:10])[n:6]1[H:11])([H:7])[H:8]"
N       -1.81079717      -0.01222965       0.11396597
C       -0.43410668      -0.05361240       0.06038307
C        0.45731003      -1.09625626       0.15714628
C        1.74662770      -0.52931266       0.31639108
N        1.61087808       0.81193155       0.19314100
N        0.29012699       1.08366614      -0.07528313
H       -2.24433984      -0.91966044       0.12541195
H       -2.25545829       0.61149170      -0.53948482
H        0.21470232      -2.14525545       0.09814324
H        2.47998317       0.23719547      -0.55076124
H       -0.05492630       2.01204200       0.10094660
11
Frame=9 idx=005393 GeodesicLength=0.2927056775040218 rxn_smarts="[N:1]([c:2]1[c:3]([H:9])[c:4]([H:10])[n:5][n:6]1[H:11])([H:7])[H:8]>>[N:1]([c+:2]1[c:3]([H:9])[c-:4][n:5]([H:10])[n:6]1[H:11])([H:7])[H:8]"
N       -1.81349691      -0.00878691       0.11806630
C       -0.43619211      -0.05263870       0.06010940
C        0.45490469      -1.09546776       0.15415497
C        1.74332822      -0.52688389       0.31665099
N        1.60834239       0.81008333       0.19176491
N        0.28923507       1.08370219      -0.08220798
H       -2.24621531      -0.91650141       0.14148921
H       -2.25775116       0.60288609      -0.54719424
H        0.21363710      -2.14422667       0.08643345
H        2.49967425       0.23723418      -0.54210082
H       -0.05546624       2.01059955       0.10283379
11
Frame=10 idx=005393 GeodesicLength=0.3251352178178747 rxn_smarts="[N:1]([c:2]1[c:3]([H:9])[c:4]([H:10])[n:5][n:6]1[H:11])([H:7])[H:8]>>[N:1]([c+:2]1[c:3]([H:9])[c-:4][n:5]([H:10])[n:6]1[H:11])([H:7])[H:8]"
N       -1.81619545      -0.00548472       0.12191548
C       -0.43830157      -0.05169086       0.05991811
C        0.45250280      -1.09468910       0.15112795
C        1.74010280      -0.52450299       0.31619548
N        1.60584841       0.80822053       0.18990255
N        0.28824812       1.08377029      -0.08872708
H       -2.24796012      -0.91342609       0.15627897
H       -2.26001667       0.59453874      -0.55437203
H        0.21247981      -2.14319387       0.07617083
H        2.51931592       0.23733845      -0.53360325
H       -0.05602404       2.00911961       0.10519298
11
Frame=11 idx=005393 GeodesicLength=0.35755527365422046 rxn_smarts="[N:1]([c:2]1[c:3]([H:9])[c:4]([H:10])[n:5][n:6]1[H:11])([H:7])[H:8]>>[N:1]([c+:2]1[c:3]([H:9])[c-:4][n:5]([H:10])[n:6]1[H:11])([H:7])[H:8]"
N       -1.81890708      -0.00226137       0.12569135
C       -0.44041848      -0.05075807       0.05969457
C        0.45010264      -1.09391792       0.14800030
C        1.73693597      -0.52214447       0.31531973
N        1.60337562       0.80635751       0.18770426
N        0.28719271       1.08384460      -0.09509833
H       -2.24962661      -0.91037075       0.17043113
H       -2.26241069       0.58631997      -0.56100955
H        0.21123973      -2.14216203       0.06651139
H        2.53910846       0.23747869      -0.52478507
H       -0.05659228       2.00761385       0.10754020
11
Frame=12 idx=005393 GeodesicLength=0.38997137429853446 rxn_smarts="[N:1]([c:2]1[c:3]([H:9])[c:4]([H:10])[n:5][n:6]1[H:11])([H:7])[H:8]>>[N:1]([c+:2]1[c:3]([H:9])[c-:4][n:5]([H:10])[n:6]1[H:11])([H:7])[H:8]"
N       -1.82162655       0.00092997       0.12946936
C       -0.44255731      -0.04983426       0.05945739
C        0.44767847      -1.09315329       0.14480998
C        1.73377921      -0.51980824       0.31413922
N        1.60089578       0.80449382       0.18522041
N        0.28607560       1.08391415      -0.10142792
H       -2.25122068      -0.90728165       0.18433384
H       -2.26492087       0.57810527      -0.56720434
H        0.20994844      -2.14109907       0.05696025
H        2.55910945       0.23763187      -0.51542618
H       -0.05716154       2.00610144       0.10966799
11
Frame=13 idx=005393 GeodesicLength=0.422388836254381 rxn_smarts="[N:1]([c:2]1[c:3]([H:9])[c:4]([H:10])[n:5][n:6]1[H:11])([H:7])[H:8]>>[N:1]([c+:2]1[c:3]([H:9])[c-:4][n:5]([H:10])[n:6]1[H:11])([H:7])[H:8]"
N       -1.82435056       0.00413690       0.13336283
C       -0.44472448      -0.04890973       0.05916324
C        0.44521383      -1.09239442       0.14155528
C        1.73059029      -0.51748619       0.31281136
N        1.59838188       0.80262938       0.18252057
N        0.28491100       1.08395258      -0.10787719
H       -2.25274538      -0.90409407       0.19840797
H       -2.26760217       0.56977868      -0.57295578
H        0.20863470      -2.13997648       0.04694071
H        2.57942252       0.23777101      -0.50519378
H       -0.05773162       2.00459235       0.11126478
11
Frame=14 idx=005393 GeodesicLength=0.4548366829890203 rxn_smarts="[N:1]([c:2]1[c:3]([H:9])[c:4]([H:10])[n:5][n:6]1[H:11])([H:7])[H:8]>>[N:1]([c+:2]1[c:3]([H:9])[c-:4][n:5]([H:10])[n:6]1[H:11])([H:7])[H:8]"
N       -1.82708452       0.00738451       0.13740447
C       -0.44692968      -0.04797906       0.05884466
C        0.44269314      -1.09164468       0.13824161
C        1.72735768      -0.51518155       0.31136021
N        1.59582892       0.80076003       0.17960125
N        0.28370064       1.08394932      -0.11450145
H       -2.25420521      -0.90076567       0.21286154
H       -2.27045624       0.56125094      -0.57832874
H        0.20730024      -2.13876274       0.03621320
H        2.60009452       0.23789290      -0.49394281
H       -0.05829949       2.00309601       0.11224607
11
Frame=15 idx=005393 GeodesicLength=0.48726506442817513 rxn_smarts="[N:1]([c:2]1[c:3]([H:9])[c:4]([H:10])[n:5][n:6]1[H:11])([H:7])[H:8]>>[N:1]([c+:2]1[c:3]([H:9])[c-:4][n:5]([H:10])[n:6]1[H:11])([H:7])[H:8]"
N       -1.82981348       0.01069647       0.14168055
C       -0.44917071      -0.04704646       0.05840519
C        0.44011166      -1.09091105       0.13480394
C        1.72404703      -0.51289235       0.30987598
N        1.59321767       0.79888218       0.17648276
N        0.28245660       1.08388233      -0.12143765
H       -2.25557776      -0.89725384       0.22794286
H       -2.27355180       0.55247234      -0.58323966
H        0.20596228      -2.13743174       0.02445751
H        2.62118209       0.23798759      -0.48137102
H       -0.05886357       2.00161453       0.11239953
11
Frame=16 idx=005393 GeodesicLength=0.5197148211034163 rxn_smarts="[N:1]([c:2]1[c:3]([H:9])[c:4]([H:10])[n:5][n:6]1[H:11])([H:7])[H:8]>>[N:1]([c+:2]1[c:3]([H:9])[c-:4][n:5]([H:10])[n:6]1[H:11])([H:7])[H:8]"
N       -1.83254229       0.01402509       0.14605757
C       -0.45144175      -0.04611519       0.05789950
C        0.43748748      -1.09019064       0.13122668
C        1.72071711      -0.51063076       0.30810658
N        1.59058431       0.79699040       0.17302785
N        0.28115484       1.08378205      -0.12851751
H       -2.25685723      -0.89362890       0.24320964
H       -2.27682178       0.54356280      -0.58773558
H        0.20457226      -2.13602251       0.01236433
H        2.64257714       0.23809505      -0.46778629
H       -0.05943009       2.00013262       0.11214723
