12
Frame=0 idx=011179 GeodesicLength=0.0 rxn_smarts="[N:1]([c:2]1[n:3][c:4]([O:5][H:10])[c:6]([H:11])[n:7]1[H:12])([H:8])[H:9]>>[N:1](=[c:2]1/[n:3]([H:8])[c:4]([O:5][H:10])[c:6]([H:11])[n:7]1[H:12])\[H:9]"
N       -1.92392728      -0.67140725       0.85687858
C       -0.94460112      -0.05664096       0.20520607
N        0.12238404      -0.86878678       0.23955184
C        1.20904386      -0.14399463      -0.18765994
O        2.44856347      -0.65557579      -0.24485440
C        0.79597815       1.08530965      -0.57915930
N       -0.60516871       1.11479621      -0.35272916
H       -0.77035551      -1.54859271       0.84433091
H       -2.88851547      -0.49935436       0.62221468
H        2.40933123      -1.57799829       0.01720937
H        1.32305089       1.88431003      -1.06695362
H       -1.17578352       1.93793486      -0.35403504
12
Frame=1 idx=011179 GeodesicLength=0.03587764243519498 rxn_smarts="[N:1]([c:2]1[n:3][c:4]([O:5][H:10])[c:6]([H:11])[n:7]1[H:12])([H:8])[H:9]>>[N:1](=[c:2]1/[n:3]([H:8])[c:4]([O:5][H:10])[c:6]([H:11])[n:7]1[H:12])\[H:9]"
N       -1.92837680      -0.67831244       0.85329532
C       -0.93637476      -0.04635310       0.23784332
N        0.12743438      -0.86498121       0.25678928
C        1.20794328      -0.14650362      -0.19639395
O        2.45255683      -0.64851484      -0.22949903
C        0.79373526       1.08256372      -0.58584974
N       -0.60472631       1.11330929      -0.34976971
H       -0.77664843      -1.56454607       0.84465675
H       -2.88562042      -0.48278909       0.60615933
H        2.41115325      -1.58092662      -0.00563564
H        1.32077052       1.88535814      -1.06739245
H       -1.18184678       1.93169585      -0.36420349
12
Frame=2 idx=011179 GeodesicLength=0.0719135875134359 rxn_smarts="[N:1]([c:2]1[n:3][c:4]([O:5][H:10])[c:6]([H:11])[n:7]1[H:12])([H:8])[H:9]>>[N:1](=[c:2]1/[n:3]([H:8])[c:4]([O:5][H:10])[c:6]([H:11])[n:7]1[H:12])\[H:9]"
N       -1.93296025      -0.68502001       0.84825797
C       -0.92586466      -0.03268801       0.27949323
N        0.13272909      -0.86041491       0.27599762
C        1.20663923      -0.14908332      -0.20422348
O        2.45552276      -0.64237714      -0.21602948
C        0.79065868       1.07865894      -0.59449650
N       -0.60420352       1.11199859      -0.34406529
H       -0.78415183      -1.58144502       0.84148262
H       -2.88128459      -0.46701632       0.58521886
H        2.41363179      -1.58258387      -0.02721032
H        1.31718802       1.88475710      -1.07099263
H       -1.18790473       1.92521398      -0.37343258
12
Frame=3 idx=011179 GeodesicLength=0.10834264968251613 rxn_smarts="[N:1]([c:2]1[n:3][c:4]([O:5][H:10])[c:6]([H:11])[n:7]1[H:12])([H:8])[H:9]>>[N:1](=[c:2]1/[n:3]([H:8])[c:4]([O:5][H:10])[c:6]([H:11])[n:7]1[H:12])\[H:9]"
N       -1.93680107      -0.68938307       0.84289897
C       -0.91523124      -0.01911308       0.32102998
N        0.13881501      -0.85466165       0.29852209
C        1.20630330      -0.14976085      -0.20568701
O        2.45764692      -0.63804571      -0.20642158
C        0.78747164       1.07476412      -0.60143910
N       -0.60378339       1.10997570      -0.33750148
H       -0.79200776      -1.59711829       0.83836382
H       -2.87556714      -0.45225852       0.56179824
H        2.41525725      -1.58462018      -0.05227297
H        1.31314640       1.88362318      -1.07412244
H       -1.19524991       1.91659835      -0.38516852
12
Frame=4 idx=011179 GeodesicLength=0.1445397129582899 rxn_smarts="[N:1]([c:2]1[n:3][c:4]([O:5][H:10])[c:6]([H:11])[n:7]1[H:12])([H:8])[H:9]>>[N:1](=[c:2]1/[n:3]([H:8])[c:4]([O:5][H:10])[c:6]([H:11])[n:7]1[H:12])\[H:9]"
N       -1.93918295      -0.69129829       0.83880182
C       -0.90646844      -0.00863420       0.35474490
N        0.14479920      -0.84937754       0.31980057
C        1.20627350      -0.14977959      -0.20478741
O        2.45937758      -0.63459670      -0.19832249
C        0.78438807       1.07111387      -0.60697048
N       -0.60356806       1.10735674      -0.33180390
H       -0.79987136      -1.61195438       0.83413409
H       -2.86890043      -0.43662528       0.54283605
H        2.41684407      -1.58589415      -0.07590241
H        1.30949238       1.88314720      -1.07483354
H       -1.20318355       1.90654232      -0.39769720
12
Frame=5 idx=011179 GeodesicLength=0.18103998958653977 rxn_smarts="[N:1]([c:2]1[n:3][c:4]([O:5][H:10])[c:6]([H:11])[n:7]1[H:12])([H:8])[H:9]>>[N:1](=[c:2]1/[n:3]([H:8])[c:4]([O:5][H:10])[c:6]([H:11])[n:7]1[H:12])\[H:9]"
N       -1.94106310      -0.69203663       0.83517180
C       -0.89887939       0.00087104       0.38454612
N        0.15130384      -0.84308969       0.34312328
C        1.20696112      -0.14838884      -0.19985052
O        2.46061145      -0.63282167      -0.19273192
C        0.78206593       1.06851546      -0.60926137
N       -0.60334224       1.10430921      -0.32718690
H       -0.80701778      -1.62504533       0.83200882
H       -2.86186106      -0.42221021       0.52435898
H        2.41673770      -1.58782808      -0.10332272
H        1.30659663       1.88327273      -1.07305090
H       -1.21211308       1.89445200      -0.41380465
12
Frame=6 idx=011179 GeodesicLength=0.21758167448542223 rxn_smarts="[N:1]([c:2]1[n:3][c:4]([O:5][H:10])[c:6]([H:11])[n:7]1[H:12])([H:8])[H:9]>>[N:1](=[c:2]1/[n:3]([H:8])[c:4]([O:5][H:10])[c:6]([H:11])[n:7]1[H:12])\[H:9]"
N       -1.94256027      -0.69233840       0.83143856
C       -0.89225941       0.00967753       0.41180519
N        0.15782561      -0.83645691       0.36673464
C        1.20787775      -0.14638653      -0.19340192
O        2.46143121      -0.63207337      -0.18868462
C        0.78028602       1.06676260      -0.60954047
N       -0.60298972       1.10160425      -0.32235450
H       -0.81355668      -1.63722245       0.83055986
H       -2.85437022      -0.40888545       0.50587178
H        2.41555564      -1.58951480      -0.13062909
H        1.30369933       1.88291691      -1.07209451
H       -1.22093926       1.88191661      -0.42970491
12
Frame=7 idx=011179 GeodesicLength=0.2543471628428712 rxn_smarts="[N:1]([c:2]1[n:3][c:4]([O:5][H:10])[c:6]([H:11])[n:7]1[H:12])([H:8])[H:9]>>[N:1](=[c:2]1/[n:3]([H:8])[c:4]([O:5][H:10])[c:6]([H:11])[n:7]1[H:12])\[H:9]"
N       -1.94377278      -0.69243628       0.82740028
C       -0.88659402       0.01815547       0.43699818
N        0.16441651      -0.82906404       0.39119373
C        1.20931086      -0.14327242      -0.18417157
O        2.46184622      -0.63254207      -0.18571288
C        0.77947479       1.06645614      -0.60630742
N       -0.60233482       1.09927946      -0.31704981
H       -0.81925667      -1.64852099       0.83033824
H       -2.84644473      -0.39684141       0.48690642
H        2.41252323      -1.59133426      -0.16015790
H        1.30076958       1.88183938      -1.07256422
H       -1.22993817       1.86828103      -0.44687305
12
Frame=8 idx=011179 GeodesicLength=0.29111569576134644 rxn_smarts="[N:1]([c:2]1[n:3][c:4]([O:5][H:10])[c:6]([H:11])[n:7]1[H:12])([H:8])[H:9]>>[N:1](=[c:2]1/[n:3]([H:8])[c:4]([O:5][H:10])[c:6]([H:11])[n:7]1[H:12])\[H:9]"
N       -1.94451673      -0.69204059       0.82410133
C       -0.88147105       0.02558630       0.45959695
N        0.17005967      -0.82313618       0.41178983
C        1.21053362      -0.14050432      -0.17583395
O        2.46235754      -0.63252070      -0.18110345
C        0.77848102       1.06578045      -0.60395976
N       -0.60165582       1.09711948      -0.31191930
H       -0.82530326      -1.66011627       0.82857474
H       -2.83841403      -0.38392520       0.47110108
H        2.41027419      -1.59160812      -0.18665856
H        1.29785151       1.88047363      -1.07353388
H       -1.23819666       1.85489154      -0.46215505
12
Frame=9 idx=011179 GeodesicLength=0.3279252686247817 rxn_smarts="[N:1]([c:2]1[n:3][c:4]([O:5][H:10])[c:6]([H:11])[n:7]1[H:12])([H:8])[H:9]>>[N:1](=[c:2]1/[n:3]([H:8])[c:4]([O:5][H:10])[c:6]([H:11])[n:7]1[H:12])\[H:9]"
N       -1.94500788      -0.69138639       0.82111183
C       -0.87679685       0.03222985       0.48027818
N        0.17492215      -0.81835768       0.42939148
C        1.21163856      -0.13795215      -0.16799312
O        2.46300722      -0.63206627      -0.17497152
C        0.77745596       1.06494320      -0.60191098
N       -0.60088343       1.09525840      -0.30650424
H       -0.83175037      -1.67209926       0.82525669
H       -2.83036591      -0.37027934       0.45767202
H        2.40886767      -1.59050389      -0.21075169
H        1.29466763       1.87832491      -1.07610802
H       -1.24575475       1.84188861      -0.47547063
12
Frame=10 idx=011179 GeodesicLength=0.3648061777697665 rxn_smarts="[N:1]([c:2]1[n:3][c:4]([O:5][H:10])[c:6]([H:11])[n:7]1[H:12])([H:8])[H:9]>>[N:1](=[c:2]1/[n:3]([H:8])[c:4]([O:5][H:10])[c:6]([H:11])[n:7]1[H:12])\[H:9]"
N       -1.94534172      -0.69050580       0.81832647
C       -0.87247610       0.03836509       0.49962859
N        0.17930953      -0.81422101       0.44531677
C        1.21272748      -0.13542467      -0.16017572
O        2.46367974      -0.63153796      -0.16812669
C        0.77651777       1.06414730      -0.59969294
N       -0.60002581       1.09361438      -0.30092093
H       -0.83847002      -1.68420781       0.82110469
H       -2.82227628      -0.35633206       0.44571242
H        2.40784452      -1.58842218      -0.23366240
H        1.29137639       1.87565393      -1.07961812
H       -1.25286550       1.82887079      -0.48789216
12
Frame=11 idx=011179 GeodesicLength=0.4017825961460819 rxn_smarts="[N:1]([c:2]1[n:3][c:4]([O:5][H:10])[c:6]([H:11])[n:7]1[H:12])([H:8])[H:9]>>[N:1](=[c:2]1/[n:3]([H:8])[c:4]([O:5][H:10])[c:6]([H:11])[n:7]1[H:12])\[H:9]"
N       -1.94559945      -0.68950830       0.81552938
C       -0.86848931       0.04414090       0.51801532
N        0.18338396      -0.81043137       0.46033690
C        1.21390644      -0.13272465      -0.15189191
O        2.46434266      -0.63107457      -0.16082156
C        0.77579383       1.06361227      -0.59677771
N       -0.59905533       1.09219291      -0.29508513
H       -0.84541250      -1.69638806       0.81626939
H       -2.81412552      -0.34234994       0.43455735
H        2.40692585      -1.58548715      -0.25604787
H        1.28785778       1.87216987      -1.08459619
H       -1.25952841       1.81584810      -0.49948798
12
Frame=12 idx=011179 GeodesicLength=0.4388456099140884 rxn_smarts="[N:1]([c:2]1[n:3][c:4]([O:5][H:10])[c:6]([H:11])[n:7]1[H:12])([H:8])[H:9]>>[N:1](=[c:2]1/[n:3]([H:8])[c:4]([O:5][H:10])[c:6]([H:11])[n:7]1[H:12])\[H:9]"
N       -1.94578603      -0.68842083       0.81264861
C       -0.86485035       0.04976356       0.53574861
N        0.18735768      -0.80655190       0.47543788
C        1.21531096      -0.12958432      -0.14252911
O        2.46486009      -0.63105288      -0.15369307
C        0.77546933       1.06363222      -0.59253282
N       -0.59794611       1.09093771      -0.28909457
H       -0.85234179      -1.70839030       0.81142733
H       -2.80582635      -0.32871892       0.42353676
H        2.40541202      -1.58196688      -0.27913555
H        1.28428132       1.86806386      -1.09045558
H       -1.26594076       1.80228869      -0.51135851
12
Frame=13 idx=011179 GeodesicLength=0.47597263165716047 rxn_smarts="[N:1]([c:2]1[n:3][c:4]([O:5][H:10])[c:6]([H:11])[n:7]1[H:12])([H:8])[H:9]>>[N:1](=[c:2]1/[n:3]([H:8])[c:4]([O:5][H:10])[c:6]([H:11])[n:7]1[H:12])\[H:9]"
N       -1.94589490      -0.68722557       0.80972657
C       -0.86145466       0.05520087       0.55287257
N        0.19118119      -0.80274971       0.49029023
C        1.21681035      -0.12622174      -0.13258506
O        2.46524711      -0.63127704      -0.14644574
C        0.77537075       1.06397386      -0.58751547
N       -0.59678440       1.08982679      -0.28301239
H       -0.85938111      -1.72031964       0.80630281
H       -2.79738215      -0.31537360       0.41266746
H        2.40366422      -1.57768049      -0.30221370
H        1.28049740       1.86317346      -1.09744968
H       -1.27187380       1.78867279      -0.52263760
12
Frame=14 idx=011179 GeodesicLength=0.5132199170508815 rxn_smarts="[N:1]([c:2]1[n:3][c:4]([O:5][H:10])[c:6]([H:11])[n:7]1[H:12])([H:8])[H:9]>>[N:1](=[c:2]1/[n:3]([H:8])[c:4]([O:5][H:10])[c:6]([H:11])[n:7]1[H:12])\[H:9]"
N       -1.94594033      -0.68604395       0.80657134
C       -0.85841454       0.06065350       0.56968542
N        0.19502733      -0.79856939       0.50588774
C        1.21865524      -0.12218203      -0.12102841
O        2.46539730      -0.63214400      -0.13959042
C        0.77587383       1.06521368      -0.58048398
N       -0.59543141       1.08890482      -0.27667248
H       -0.86627804      -1.73203852       0.80127743
H       -2.78871436      -0.30262269       0.40140115
H        2.40076844      -1.57275852      -0.32678293
H        1.27656927       1.85729521      -1.10566841
H       -1.27751271       1.77429191      -0.53459644
12
Frame=15 idx=011179 GeodesicLength=0.5505421227510913 rxn_smarts="[N:1]([c:2]1[n:3][c:4]([O:5][H:10])[c:6]([H:11])[n:7]1[H:12])([H:8])[H:9]>>[N:1](=[c:2]1/[n:3]([H:8])[c:4]([O:5][H:10])[c:6]([H:11])[n:7]1[H:12])\[H:9]"
N       -1.94587665      -0.68477879       0.80339304
C       -0.85563510       0.06605647       0.58604125
N        0.19880091      -0.79426247       0.52161386
C        1.22060875      -0.11788379      -0.10887771
O        2.46533208      -0.63340612      -0.13295514
C        0.77664944       1.06685211      -0.57263323
N       -0.59403416       1.08803470      -0.27043430
H       -0.87314270      -1.74361522       0.79621505
H       -2.77985853      -0.29028866       0.39012315
H        2.39730427      -1.56708789      -0.35164048
H        1.27254799       1.85074057      -1.11440842
H       -1.28269630       1.75963909      -0.54643706
12
Frame=16 idx=011179 GeodesicLength=0.5879201329489916 rxn_smarts="[N:1]([c:2]1[n:3][c:4]([O:5][H:10])[c:6]([H:11])[n:7]1[H:12])([H:8])[H:9]>>[N:1](=[c:2]1/[n:3]([H:8])[c:4]([O:5][H:10])[c:6]([H:11])[n:7]1[H:12])\[H:9]"
N       -1.94565604      -0.68340934       0.80032665
C       -0.85308740       0.07142996       0.60184195
N        0.20249530      -0.78984432       0.53732450
C        1.22258319      -0.11347409      -0.09655726
O        2.46502683      -0.63502642      -0.12667710
C        0.77756804       1.06867805      -0.56450863
N       -0.59265596       1.08707443      -0.26461171
H       -0.87996279      -1.75505887       0.79116005
H       -2.77085855      -0.27828673       0.37919797
H        2.39336760      -1.56075324      -0.37637857
H        1.26864309       1.84397141      -1.12281247
H       -1.28746330       1.74469916      -0.55830537
