11
Frame=0 idx=000887 GeodesicLength=0.0 rxn_smarts="[N:1](=[C:2]1/[C:3]([H:8])=[C:4]([H:9])[C:5]([H:10])([H:11])[O:6]1)\[H:7]>>[N:1]#[C:2]/[C:3](=[C:4](\[C:5]([O:6][H:7])([H:10])[H:11])[H:9])[H:8]"
N        2.41831090      -0.03982524       0.08721575
C        1.34309020       0.32768180      -0.27738350
C        0.19700084       1.20288131      -0.42513637
C       -0.94924367       0.62986368      -0.07739061
C       -0.84770312      -0.84400012       0.24467825
O        0.39989764      -1.25417244      -0.20695494
H        1.60769147      -1.05300242       0.25280608
H        0.35287477       2.24593353      -0.65733974
H       -1.88526022       1.16990162      -0.00440934
H       -1.64623519      -1.39774983      -0.26284005
H       -0.99042357      -0.98751194       1.32675443
11
Frame=1 idx=000887 GeodesicLength=0.049498472435600356 rxn_smarts="[N:1](=[C:2]1/[C:3]([H:8])=[C:4]([H:9])[C:5]([H:10])([H:11])[O:6]1)\[H:7]>>[N:1]#[C:2]/[C:3](=[C:4](\[C:5]([O:6][H:7])([H:10])[H:11])[H:9])[H:8]"
N        2.41846801      -0.03302312       0.07978275
C        1.34313998       0.32679704      -0.29573198
C        0.19641372       1.20371565      -0.42738826
C       -0.94894343       0.63020876      -0.07745500
C       -0.84950539      -0.84254907       0.24629328
O        0.40051382      -1.25821655      -0.19776427
H        1.61496840      -1.06307019       0.26239944
H        0.35308347       2.25017610      -0.64321233
H       -1.88612229       1.16866824      -0.00885901
H       -1.64470695      -1.39675203      -0.26553079
H       -0.99730934      -0.98595482       1.32746616
11
Frame=2 idx=000887 GeodesicLength=0.0989876915023935 rxn_smarts="[N:1](=[C:2]1/[C:3]([H:8])=[C:4]([H:9])[C:5]([H:10])([H:11])[O:6]1)\[H:7]>>[N:1]#[C:2]/[C:3](=[C:4](\[C:5]([O:6][H:7])([H:10])[H:11])[H:9])[H:8]"
N        2.41848747      -0.02635294       0.07187238
C        1.34299598       0.32601401      -0.31379285
C        0.19583378       1.20466757      -0.42927715
C       -0.94867169       0.63063235      -0.07733209
C       -0.85130221      -0.84107156       0.24787763
O        0.40122535      -1.26200456      -0.18838844
H        1.62241650      -1.07318673       0.27217955
H        0.35338942       2.25410108      -0.62951185
H       -1.88702607       1.16746147      -0.01322534
H       -1.64298975      -1.39572223      -0.26847917
H       -1.00435878      -0.98453847       1.32807734
11
Frame=3 idx=000887 GeodesicLength=0.14845294794443425 rxn_smarts="[N:1](=[C:2]1/[C:3]([H:8])=[C:4]([H:9])[C:5]([H:10])([H:11])[O:6]1)\[H:7]>>[N:1]#[C:2]/[C:3](=[C:4](\[C:5]([O:6][H:7])([H:10])[H:11])[H:9])[H:8]"
N        2.41833827      -0.01981725       0.06368703
C        1.34266492       0.32537106      -0.33150319
C        0.19525787       1.20573344      -0.43081861
C       -0.94842284       0.63114275      -0.07698840
C       -0.85308750      -0.83957344       0.24940291
O        0.40202603      -1.26551851      -0.17890025
H        1.63002781      -1.08340427       0.28209153
H        0.35374855       2.25770536      -0.61648852
H       -1.88793500       1.16631568      -0.01732685
H       -1.64108810      -1.39464393      -0.27170839
H       -1.01153000      -0.98331089       1.32855275
11
Frame=4 idx=000887 GeodesicLength=0.1979033851443666 rxn_smarts="[N:1](=[C:2]1/[C:3]([H:8])=[C:4]([H:9])[C:5]([H:10])([H:11])[O:6]1)\[H:7]>>[N:1]#[C:2]/[C:3](=[C:4](\[C:5]([O:6][H:7])([H:10])[H:11])[H:9])[H:8]"
N        2.41800830      -0.01342521       0.05532160
C        1.34215716       0.32488034      -0.34886558
C        0.19467842       1.20690781      -0.43204999
C       -0.94819529       0.63174469      -0.07641104
C       -0.85485726      -0.83805788       0.25086208
O        0.40292022      -1.26876195      -0.16932252
H        1.63780825      -1.09376600       0.29211889
H        0.35413142       2.26102719      -0.60421680
H       -1.88884190       1.16524901      -0.02109729
H       -1.63900033      -1.39350902      -0.27522622
H       -1.01880899      -0.98228898       1.32888687
11
Frame=5 idx=000887 GeodesicLength=0.24732508313889345 rxn_smarts="[N:1](=[C:2]1/[C:3]([H:8])=[C:4]([H:9])[C:5]([H:10])([H:11])[O:6]1)\[H:7]>>[N:1]#[C:2]/[C:3](=[C:4](\[C:5]([O:6][H:7])([H:10])[H:11])[H:9])[H:8]"
N        2.41747412      -0.00717999       0.04686030
C        1.34147787       0.32455303      -0.36589140
C        0.19408854       1.20818049      -0.43301842
C       -0.94798374       0.63243645      -0.07560183
C       -0.85660554      -0.83652579       0.25225213
O        0.40390567      -1.27173710      -0.15967394
H        1.64575509      -1.10430943       0.30223861
H        0.35452046       2.26410252      -0.59271920
H       -1.88973499       1.16426683      -0.02449942
H       -1.63672480      -1.39231576      -0.27902208
H       -1.02617266      -0.98147124       1.32907524
11
Frame=6 idx=000887 GeodesicLength=0.29674010567670667 rxn_smarts="[N:1](=[C:2]1/[C:3]([H:8])=[C:4]([H:9])[C:5]([H:10])([H:11])[O:6]1)\[H:7]>>[N:1]#[C:2]/[C:3](=[C:4](\[C:5]([O:6][H:7])([H:10])[H:11])[H:9])[H:8]"
N        2.41675589      -0.00111688       0.03813819
C        1.34061596       0.32436031      -0.38272481
C        0.19347923       1.20952903      -0.43382681
C       -0.94779859       0.63319717      -0.07465285
C       -0.85833219      -0.83497079       0.25360146
O        0.40499070      -1.27446515      -0.14987030
H        1.65386766      -1.11500588       0.31253304
H        0.35494681       2.26701441      -0.58160321
H       -1.89064030       1.16333252      -0.02771061
H       -1.63424206      -1.39110564      -0.28303615
H       -1.03364311      -0.98076910       1.32915204
11
Frame=7 idx=000887 GeodesicLength=0.3461451758107281 rxn_smarts="[N:1](=[C:2]1/[C:3]([H:8])=[C:4]([H:9])[C:5]([H:10])([H:11])[O:6]1)\[H:7]>>[N:1]#[C:2]/[C:3](=[C:4](\[C:5]([O:6][H:7])([H:10])[H:11])[H:9])[H:8]"
N        2.41585372       0.00474005       0.02906590
C        1.33956096       0.32428600      -0.39945705
C        0.19284321       1.21094613      -0.43452011
C       -0.94764234       0.63401914      -0.07359817
C       -0.86003563      -0.83338793       0.25492920
O        0.40618090      -1.27695192      -0.13985567
H        1.66215129      -1.12584039       0.32304162
H        0.35543191       2.26980316      -0.57066057
H       -1.89157367       1.16242198      -0.03083728
H       -1.63153184      -1.38989682      -0.28724328
H       -1.04123851      -0.98013941       1.32913539
11
Frame=8 idx=000887 GeodesicLength=0.3955483955674509 rxn_smarts="[N:1](=[C:2]1/[C:3]([H:8])=[C:4]([H:9])[C:5]([H:10])([H:11])[O:6]1)\[H:7]>>[N:1]#[C:2]/[C:3](=[C:4](\[C:5]([O:6][H:7])([H:10])[H:11])[H:9])[H:8]"
N        2.41478684       0.01034543       0.01941902
C        1.33828913       0.32429808      -0.41622907
C        0.19217745       1.21242650      -0.43512510
C       -0.94752351       0.63489037      -0.07248941
C       -0.86171703      -0.83176866       0.25626990
O        0.40748805      -1.27920256      -0.12952303
H        1.67061473      -1.13675829       0.33385151
H        0.35602299       2.27251485      -0.55952566
H       -1.89257105       1.16148646      -0.03409965
H       -1.62856336      -1.38871834      -0.29160580
H       -1.04900425      -0.97951385       1.32905729
11
Frame=9 idx=000887 GeodesicLength=0.44496904880273946 rxn_smarts="[N:1](=[C:2]1/[C:3]([H:8])=[C:4]([H:9])[C:5]([H:10])([H:11])[O:6]1)\[H:7]>>[N:1]#[C:2]/[C:3](=[C:4](\[C:5]([O:6][H:7])([H:10])[H:11])[H:9])[H:8]"
N        2.41356782       0.01566402       0.00903965
C        1.33677603       0.32437504      -0.43314182
C        0.19148299       1.21397345      -0.43563145
C       -0.94745134       0.63580374      -0.07136460
C       -0.86337829      -0.83010817       0.25763848
O        0.40892373      -1.28121017      -0.11879505
H        1.67926355      -1.14771239       0.34504095
H        0.35675583       2.27516375      -0.54798893
H       -1.89365135       1.16049873      -0.03760907
H       -1.62530713      -1.38759182      -0.29611450
H       -1.05698182      -0.97885617       1.32892635
11
Frame=10 idx=000887 GeodesicLength=0.4943738506958128 rxn_smarts="[N:1](=[C:2]1/[C:3]([H:8])=[C:4]([H:9])[C:5]([H:10])([H:11])[O:6]1)\[H:7]>>[N:1]#[C:2]/[C:3](=[C:4](\[C:5]([O:6][H:7])([H:10])[H:11])[H:9])[H:8]"
N        2.41214214       0.02072209      -0.00173982
C        1.33504031       0.32456831      -0.45006026
C        0.19075311       1.21559445      -0.43603316
C       -0.94739978       0.63679751      -0.07006204
C       -0.86500994      -0.82841301       0.25900476
O        0.41048039      -1.28294504      -0.10778845
H        1.68810164      -1.15879958       0.35648782
H        0.35756040       2.27770911      -0.53655435
H       -1.89477367       1.15951287      -0.04111131
H       -1.62177202      -1.38644567      -0.30083943
H       -1.06512259      -0.97830105       1.32869625
11
Frame=11 idx=000887 GeodesicLength=0.5437879648564325 rxn_smarts="[N:1](=[C:2]1/[C:3]([H:8])=[C:4]([H:9])[C:5]([H:10])([H:11])[O:6]1)\[H:7]>>[N:1]#[C:2]/[C:3](=[C:4](\[C:5]([O:6][H:7])([H:10])[H:11])[H:9])[H:8]"
N        2.41052643       0.02548536      -0.01311213
C        1.33305395       0.32484955      -0.46709675
C        0.18998834       1.21728847      -0.43632900
C       -0.94737885       0.63786045      -0.06863480
C       -0.86661545      -0.82667997       0.26038403
O        0.41217422      -1.28440255      -0.09640046
H        1.69713338      -1.16996357       0.36828706
H        0.35847597       2.28017018      -0.52498061
H       -1.89595281       1.15850706      -0.04470931
H       -1.61791511      -1.38530934      -0.30578078
H       -1.07349007      -0.97780562       1.32837276
11
Frame=12 idx=000887 GeodesicLength=0.5932121250166951 rxn_smarts="[N:1](=[C:2]1/[C:3]([H:8])=[C:4]([H:9])[C:5]([H:10])([H:11])[O:6]1)\[H:7]>>[N:1]#[C:2]/[C:3](=[C:4](\[C:5]([O:6][H:7])([H:10])[H:11])[H:9])[H:8]"
N        2.40872995       0.02990082      -0.02529707
C        1.33077457       0.32518830      -0.48436633
C        0.18918879       1.21905289      -0.43651268
C       -0.94740041       0.63898474      -0.06711787
C       -0.86819986      -0.82490378       0.26179318
O        0.41402017      -1.28556761      -0.08452244
H        1.70637786      -1.18111817       0.38054725
H        0.35955834       2.28255062      -0.51301139
H       -1.89720895       1.15745015      -0.04852534
H       -1.61368962      -1.38420417      -0.31094671
H       -1.08215083      -0.97733380       1.32795940
11
Frame=13 idx=000887 GeodesicLength=0.642665432624542 rxn_smarts="[N:1](=[C:2]1/[C:3]([H:8])=[C:4]([H:9])[C:5]([H:10])([H:11])[O:6]1)\[H:7]>>[N:1]#[C:2]/[C:3](=[C:4](\[C:5]([O:6][H:7])([H:10])[H:11])[H:9])[H:8]"
N        2.40675090       0.03392480      -0.03845808
C        1.32816507       0.32556236      -0.50196154
C        0.18835009       1.22089010      -0.43659492
C       -0.94747777       0.64016491      -0.06555376
C       -0.86976525      -0.82307875       0.26324643
O        0.41603455      -1.28641572      -0.07205013
H        1.71584684      -1.19221141       0.39332969
H        0.36085715       2.28485134      -0.50042162
H       -1.89855887       1.15632108      -0.05265748
H       -1.60904630      -1.38315973      -0.31633431
H       -1.09115640      -0.97684897       1.32745575
11
Frame=14 idx=000887 GeodesicLength=0.6921333745158593 rxn_smarts="[N:1](=[C:2]1/[C:3]([H:8])=[C:4]([H:9])[C:5]([H:10])([H:11])[O:6]1)\[H:7]>>[N:1]#[C:2]/[C:3](=[C:4](\[C:5]([O:6][H:7])([H:10])[H:11])[H:9])[H:8]"
N        2.40455336       0.03755773      -0.05245401
C        1.32521804       0.32599129      -0.51982599
C        0.18746704       1.22279841      -0.43658674
C       -0.94760680       0.64141263      -0.06390314
C       -0.87130645      -0.82120799       0.26472236
O        0.41821458      -1.28692085      -0.05904216
H        1.72553896      -1.20326940       0.40660236
H        0.36235606       2.28704202      -0.48740516
H       -1.89998207       1.15514857      -0.05697228
H       -1.60397940      -1.38215452      -0.32196785
H       -1.10047331      -0.97639788       1.32683261
11
Frame=15 idx=000887 GeodesicLength=0.7416122994870108 rxn_smarts="[N:1](=[C:2]1/[C:3]([H:8])=[C:4]([H:9])[C:5]([H:10])([H:11])[O:6]1)\[H:7]>>[N:1]#[C:2]/[C:3](=[C:4](\[C:5]([O:6][H:7])([H:10])[H:11])[H:9])[H:8]"
N        2.40210249       0.04079735      -0.06716207
C        1.32192820       0.32649462      -0.53791697
C        0.18653264       1.22477883      -0.43650796
C       -0.94778838       0.64273509      -0.06215439
C       -0.87281627      -0.81929119       0.26620828
O        0.42055619      -1.28705816      -0.04554864
H        1.73545039      -1.21433349       0.42032027
H        0.36404391       2.28910680      -0.47407535
H       -1.90146858       1.15394831      -0.06139503
H       -1.59848330      -1.38117907      -0.32784210
H       -1.11005729      -0.97599910       1.32607395
11
Frame=16 idx=000887 GeodesicLength=0.791099962769114 rxn_smarts="[N:1](=[C:2]1/[C:3]([H:8])=[C:4]([H:9])[C:5]([H:10])([H:11])[O:6]1)\[H:7]>>[N:1]#[C:2]/[C:3](=[C:4](\[C:5]([O:6][H:7])([H:10])[H:11])[H:9])[H:8]"
N        2.39936616       0.04364249      -0.08247354
C        1.31829192       0.32709091      -0.55619819
C        0.18553946       1.22683261      -0.43638230
C       -0.94802492       0.64413643      -0.06030924
C       -0.87428670      -0.81732692       0.26769454
O        0.42305475      -1.28680584      -0.03161983
H        1.74557289      -1.22544693       0.43444128
H        0.36591293       2.29103479      -0.46050724
H       -1.90301288       1.15273012      -0.06587630
H       -1.59255499      -1.38022879      -0.33393941
H       -1.11985862      -0.97565886       1.32517023
