15
Frame=0 idx=006956 GeodesicLength=0.0 rxn_smarts="[C:1]([C:2]1([C:3]([H:11])([H:12])[H:13])[N:4]([H:14])[C@:5]1([C:6]#[N:7])[H:15])([H:8])([H:9])[H:10]>>[C:1]([C:2]([C:3]([H:11])([H:12])[H:13])([N:4]([C:5][H:15])[H:14])[C:6]#[N:7])([H:8])([H:9])[H:10]"
C       -0.52308074       1.36709157      -0.46305839
C       -0.02127131      -0.02353164      -0.09037637
C       -0.96840212      -0.79814713       0.80513309
N        0.35898465      -0.77380852      -1.29318942
C        1.59700847      -0.99624089      -0.65305500
C        1.32751479       0.27953926       0.69852747
N        1.89061414       0.74332405       1.59810669
H       -0.75790438       1.92915131       0.44001262
H       -1.42365305       1.25534213      -1.07049552
H        0.22594220       1.92069845      -1.02889261
H       -1.94685213      -0.83062727       0.32394271
H       -0.62341710      -1.82004872       0.95210219
H       -1.05861148      -0.31400096       1.77743137
H        0.49487938      -0.10862802      -2.04717677
H        1.42824873      -1.83011357       0.05098798
15
Frame=1 idx=006956 GeodesicLength=0.05902017990448294 rxn_smarts="[C:1]([C:2]1([C:3]([H:11])([H:12])[H:13])[N:4]([H:14])[C@:5]1([C:6]#[N:7])[H:15])([H:8])([H:9])[H:10]>>[C:1]([C:2]([C:3]([H:11])([H:12])[H:13])([N:4]([C:5][H:15])[H:14])[C:6]#[N:7])([H:8])([H:9])[H:10]"
C       -0.52469821       1.36646802      -0.45887807
C       -0.02187018      -0.02433272      -0.08804630
C       -0.97591651      -0.79977424       0.80010771
N        0.35864787      -0.77421928      -1.29073924
C        1.59148967      -0.99881643      -0.64991713
C        1.34458803       0.28611959       0.69900659
N        1.91891641       0.75356108       1.58886439
H       -0.76346724       1.92748605       0.44388443
H       -1.42407303       1.25813984      -1.06866791
H        0.22593299       1.92185178      -1.02086677
H       -1.95157888      -0.83413084       0.31323584
H       -0.63339125      -1.82209819       0.95010971
H       -1.07363749      -0.31628836       1.77206605
H        0.48999748      -0.11429455      -2.04978168
H        1.43906033      -1.82967175       0.05962238
15
Frame=2 idx=006956 GeodesicLength=0.11799419896103312 rxn_smarts="[C:1]([C:2]1([C:3]([H:11])([H:12])[H:13])[N:4]([H:14])[C@:5]1([C:6]#[N:7])[H:15])([H:8])([H:9])[H:10]>>[C:1]([C:2]([C:3]([H:11])([H:12])[H:13])([N:4]([C:5][H:15])[H:14])[C:6]#[N:7])([H:8])([H:9])[H:10]"
C       -0.52631572       1.36581110      -0.45453177
C       -0.02257927      -0.02520910      -0.08557606
C       -0.98365803      -0.80150323       0.79496749
N        0.35835785      -0.77460805      -1.28817118
C        1.58589830      -1.00146998      -0.64643496
C        1.36193626       0.29281167       0.69929990
N        1.94775465       0.76422305       1.57882821
H       -0.76899868       1.92574245       0.44794029
H       -1.42445045       1.26099866      -1.06672302
H        0.22592456       1.92297729      -1.01263105
H       -1.95642338      -0.83765883       0.30228392
H       -0.64363879      -1.82425298       0.94798101
H       -1.08901376      -0.31874110       1.76654609
H        0.48525021      -0.11999173      -2.05220079
H        1.44995626      -1.82912923       0.06842191
15
Frame=3 idx=006956 GeodesicLength=0.17692607798760981 rxn_smarts="[C:1]([C:2]1([C:3]([H:11])([H:12])[H:13])[N:4]([H:14])[C@:5]1([C:6]#[N:7])[H:15])([H:8])([H:9])[H:10]>>[C:1]([C:2]([C:3]([H:11])([H:12])[H:13])([N:4]([C:5][H:15])[H:14])[C:6]#[N:7])([H:8])([H:9])[H:10]"
C       -0.52793211       1.36512025      -0.45001000
C       -0.02340057      -0.02616352      -0.08295482
C       -0.99163635      -0.80333782       0.78970693
N        0.35811950      -0.77497489      -1.28547475
C        1.58023512      -1.00420048      -0.64259192
C        1.37957004       0.29962056       0.69939828
N        1.97714524       0.77531850       1.56794740
H       -0.77449859       1.92391881       0.45219055
H       -1.42478194       1.26392080      -1.06465439
H        0.22591851       1.92407488      -1.00417510
H       -1.96138817      -0.84121236       0.29107098
H       -0.65417266      -1.82651846       0.94571080
H       -1.10476140      -0.32136505       1.76086291
H        0.48064535      -0.12571896      -2.05442541
H        1.46093803      -1.82848226       0.07739855
15
Frame=4 idx=006956 GeodesicLength=0.23581625010881924 rxn_smarts="[C:1]([C:2]1([C:3]([H:11])([H:12])[H:13])[N:4]([H:14])[C@:5]1([C:6]#[N:7])[H:15])([H:8])([H:9])[H:10]>>[C:1]([C:2]([C:3]([H:11])([H:12])[H:13])([N:4]([C:5][H:15])[H:14])[C:6]#[N:7])([H:8])([H:9])[H:10]"
C       -0.52954575       1.36439336      -0.44530104
C       -0.02433633      -0.02719913      -0.08017092
C       -0.99986150      -0.80528071       0.78431907
N        0.35793890      -0.77531989      -1.28263800
C        1.57450030      -1.00700713      -0.63837064
C        1.39749877       0.30654916       0.69929296
N        2.00710332       0.78686062       1.55616268
H       -0.77996684       1.92201124       0.45664777
H       -1.42506233       1.26690790      -1.06245292
H        0.22591721       1.92514208      -0.99548512
H       -1.96647432      -0.84479113       0.27957959
H       -0.66500675      -1.82889832       0.94329131
H       -1.12090370      -0.32416532       1.75500553
H        0.47619179      -0.13147656      -2.05644471
H        1.47200721      -1.82772618       0.08656445
15
Frame=5 idx=006956 GeodesicLength=0.2946657170380945 rxn_smarts="[C:1]([C:2]1([C:3]([H:11])([H:12])[H:13])[N:4]([H:14])[C@:5]1([C:6]#[N:7])[H:15])([H:8])([H:9])[H:10]>>[C:1]([C:2]([C:3]([H:11])([H:12])[H:13])([N:4]([C:5][H:15])[H:14])[C:6]#[N:7])([H:8])([H:9])[H:10]"
C       -0.53115498       1.36362868      -0.44039293
C       -0.02538891      -0.02831911      -0.07721197
C       -1.00834372      -0.80733479       0.77879675
N        0.35782243      -0.77564318      -1.27964811
C        1.56869444      -1.00988819      -0.63375249
C        1.41573252       0.31360126       0.69897461
N        2.03764291       0.79885964       1.54341226
H       -0.78540331       1.92001630       0.46132470
H       -1.42528646       1.26996187      -1.06010946
H        0.22592303       1.92617681      -0.98654733
H       -1.97168272      -0.84839482       0.26779165
H       -0.67615528      -1.83139663       0.94071463
H       -1.13746441      -0.32714725       1.74896231
H        0.47189842      -0.13726499      -2.05824737
H        1.48316606      -1.82685560       0.09593278
15
Frame=6 idx=006956 GeodesicLength=0.35347540077099304 rxn_smarts="[C:1]([C:2]1([C:3]([H:11])([H:12])[H:13])[N:4]([H:14])[C@:5]1([C:6]#[N:7])[H:15])([H:8])([H:9])[H:10]>>[C:1]([C:2]([C:3]([H:11])([H:12])[H:13])([N:4]([C:5][H:15])[H:14])[C:6]#[N:7])([H:8])([H:9])[H:10]"
C       -0.53275797       1.36282437      -0.43527290
C       -0.02656083      -0.02952676      -0.07406471
C       -1.01709366      -0.80950295       0.77313219
N        0.35777706      -0.77594498      -1.27649111
C        1.56281844      -1.01284130      -0.62871752
C        1.43428164       0.32078078       0.69843366
N        2.06877704       0.81132494       1.52962960
H       -0.79080792       1.91793033       0.46623485
H       -1.42544877       1.27308480      -1.05761426
H        0.22593869       1.92717686      -0.97734691
H       -1.97701383      -0.85202288       0.25568790
H       -0.68763307      -1.83401749       0.93797229
H       -1.15446853      -0.33031621       1.74272036
H        0.46777445      -0.14308504      -2.05982115
H        1.49441726      -1.82586447       0.10551770
15
Frame=7 idx=006956 GeodesicLength=0.4122466347745084 rxn_smarts="[C:1]([C:2]1([C:3]([H:11])([H:12])[H:13])[N:4]([H:14])[C@:5]1([C:6]#[N:7])[H:15])([H:8])([H:9])[H:10]>>[C:1]([C:2]([C:3]([H:11])([H:12])[H:13])([N:4]([C:5][H:15])[H:14])[C:6]#[N:7])([H:8])([H:9])[H:10]"
C       -0.53435267       1.36197846      -0.42992705
C       -0.02785489      -0.03082567      -0.07071489
C       -1.02612246      -0.81178818       0.76731685
N        0.35781038      -0.77622553      -1.27315174
C        1.55687335      -1.01586376      -0.62324405
C        1.45315658       0.32809133       0.69766095
N        2.10051849       0.82426665       1.51474128
H       -0.79618069       1.91574925       0.47139294
H       -1.42554305       1.27627913      -1.05495679
H        0.22596747       1.92813988      -0.96786729
H       -1.98246762      -0.85567455       0.24324763
H       -0.69945589      -1.83676526       0.93505469
H       -1.17194256      -0.33367787       1.73626528
H        0.46382976      -0.14893768      -2.06115254
H        1.50576379      -1.82474621       0.11533473
15
Frame=8 idx=006956 GeodesicLength=0.4709800229580479 rxn_smarts="[C:1]([C:2]1([C:3]([H:11])([H:12])[H:13])[N:4]([H:14])[C@:5]1([C:6]#[N:7])[H:15])([H:8])([H:9])[H:10]>>[C:1]([C:2]([C:3]([H:11])([H:12])[H:13])([N:4]([C:5][H:15])[H:14])[C:6]#[N:7])([H:8])([H:9])[H:10]"
C       -0.53593688       1.36108893      -0.42434091
C       -0.02927401      -0.03221946      -0.06714749
C       -1.03544125      -0.81419318       0.76134173
N        0.35793055      -0.77648521      -1.26961362
C        1.55086075      -1.01895169      -0.61730928
C        1.47236830       0.33553706       0.69664650
N        2.13287643       0.83769152       1.49867076
H       -0.80152153       1.91346895       0.47681413
H       -1.42556275       1.27954734      -1.05212589
H        0.22601286       1.92906325      -0.95809141
H       -1.98804326      -0.85934853       0.23044950
H       -0.71163954      -1.83964394       0.93195185
H       -1.18991337      -0.33723749       1.72958143
H        0.46007423      -0.15482445      -2.06222722
H        1.51720947      -1.82349309       0.12539993
15
Frame=9 idx=006956 GeodesicLength=0.5296757460909209 rxn_smarts="[C:1]([C:2]1([C:3]([H:11])([H:12])[H:13])[N:4]([H:14])[C@:5]1([C:6]#[N:7])[H:15])([H:8])([H:9])[H:10]>>[C:1]([C:2]([C:3]([H:11])([H:12])[H:13])([N:4]([C:5][H:15])[H:14])[C:6]#[N:7])([H:8])([H:9])[H:10]"
C       -0.53750859       1.36015392      -0.41850006
C       -0.03082125      -0.03371149      -0.06334703
C       -1.04506063      -0.81672003       0.75519771
N        0.35814618      -0.77672462      -1.26585930
C        1.54478305      -1.02209919      -0.61088976
C        1.49192860       0.34312408       0.69537858
N        2.16585538       0.85159767       1.48134233
H       -0.80683060       1.91108590       0.48251330
H       -1.42550166       1.28289159      -1.04911016
H        0.22607777       1.92994425      -0.94800312
H       -1.99373896      -0.86304274       0.21727237
H       -0.72419909      -1.84265683       0.92865374
H       -1.20840727      -0.34099930       1.72265218
H        0.45651708      -0.16074799      -2.06303063
H        1.52875999      -1.82209522       0.13572986
15
Frame=10 idx=006956 GeodesicLength=0.5883343085191065 rxn_smarts="[C:1]([C:2]1([C:3]([H:11])([H:12])[H:13])[N:4]([H:14])[C@:5]1([C:6]#[N:7])[H:15])([H:8])([H:9])[H:10]>>[C:1]([C:2]([C:3]([H:11])([H:12])[H:13])([N:4]([C:5][H:15])[H:14])[C:6]#[N:7])([H:8])([H:9])[H:10]"
C       -0.53906509       1.35917129      -0.41238891
C       -0.03249990      -0.03530558      -0.05929711
C       -1.05499156      -0.81937106       0.74887499
N        0.35846648      -0.77694447      -1.26187028
C        1.53864289      -1.02530005      -0.60396044
C        1.51184995       0.35085776       0.69384530
N        2.19945607       0.86598567       1.46267368
H       -0.81210734       1.90859570       0.48850684
H       -1.42535247       1.28631446      -1.04589733
H        0.22616653       1.93078008      -0.93758431
H       -1.99955234      -0.86675464       0.20369415
H       -0.73715088      -1.84580770       0.92514900
H       -1.22745124      -0.34496805       1.71545961
H        0.45316815      -0.16671109      -2.06354726
H        1.54042076      -1.82054232       0.14634207
15
Frame=11 idx=006956 GeodesicLength=0.6469715771108233 rxn_smarts="[C:1]([C:2]1([C:3]([H:11])([H:12])[H:13])[N:4]([H:14])[C@:5]1([C:6]#[N:7])[H:15])([H:8])([H:9])[H:10]>>[C:1]([C:2]([C:3]([H:11])([H:12])[H:13])([N:4]([C:5][H:15])[H:14])[C:6]#[N:7])([H:8])([H:9])[H:10]"
C       -0.54060192       1.35814202      -0.40599265
C       -0.03431391      -0.03700562      -0.05498070
C       -1.06524745      -0.82215248       0.74236628
N        0.35889949      -0.77714712      -1.25763179
C        1.53244279      -1.02854661      -0.59649764
C        1.53214774       0.35874906       0.69203720
N        2.23368392       0.88085515       1.44258510
H       -0.81735028       1.90599842       0.49481334
H       -1.42510686       1.28981920      -1.04247892
H        0.22628725       1.93157455      -0.92681924
H       -2.00548298      -0.87048983       0.18969185
H       -0.75051422      -1.84910602       0.92143031
H       -1.24707690      -0.34915003       1.70799008
H        0.45003658      -0.17271694      -2.06376915
H        1.55219676      -1.81882375       0.15725591
15
Frame=12 idx=006956 GeodesicLength=0.7055442047051542 rxn_smarts="[C:1]([C:2]1([C:3]([H:11])([H:12])[H:13])[N:4]([H:14])[C@:5]1([C:6]#[N:7])[H:15])([H:8])([H:9])[H:10]>>[C:1]([C:2]([C:3]([H:11])([H:12])[H:13])([N:4]([C:5][H:15])[H:14])[C:6]#[N:7])([H:8])([H:9])[H:10]"
C       -0.54212227       1.35706044      -0.39929800
C       -0.03626394      -0.03880960      -0.05038171
C       -1.07582464      -0.82505067       0.73566002
N        0.35945548      -0.77733091      -1.25311256
C        1.52619072      -1.03182028      -0.58847831
C        1.55283509       0.36681119       0.68991207
N        2.26849416       0.89612027       1.42103385
H       -0.82256458       1.90328979       0.50143551
H       -1.42476336       1.29340346      -1.03883410
H        0.22642666       1.93231232      -0.91569834
H       -2.01150874      -0.87423698       0.17524595
H       -0.76427932      -1.85253101       0.91749262
H       -1.26730273      -0.35352825       1.70020914
H        0.44711907      -0.17877779      -2.06366551
H        1.56410838      -1.81691194       0.16847936
15
Frame=13 idx=006956 GeodesicLength=0.7640838614925339 rxn_smarts="[C:1]([C:2]1([C:3]([H:11])([H:12])[H:13])[N:4]([H:14])[C@:5]1([C:6]#[N:7])[H:15])([H:8])([H:9])[H:10]>>[C:1]([C:2]([C:3]([H:11])([H:12])[H:13])([N:4]([C:5][H:15])[H:14])[C:6]#[N:7])([H:8])([H:9])[H:10]"
C       -0.54361849       1.35591955      -0.39225740
C       -0.03835883      -0.04073437      -0.04546432
C       -1.08675842      -0.82808215       0.72872299
N        0.36015671      -0.77749515      -1.24827424
C        1.51988113      -1.03513981      -0.57983369
C        1.57390872       0.37500951       0.68751364
N        2.30397657       0.91194106       1.39770834
H       -0.82776001       1.90044216       0.50842687
H       -1.42429386       1.29708387      -1.03493832
H        0.22661214       1.93299220      -0.90413356
H       -2.01763518      -0.87798818       0.16029042
H       -0.77850877      -1.85610982       0.91328453
H       -1.28820455      -0.35813708       1.69207235
H        0.44446274      -0.18488146      -2.06318839
H        1.57614010      -1.81482032       0.18007078
15
Frame=14 idx=006956 GeodesicLength=0.8226193032928336 rxn_smarts="[C:1]([C:2]1([C:3]([H:11])([H:12])[H:13])[N:4]([H:14])[C@:5]1([C:6]#[N:7])[H:15])([H:8])([H:9])[H:10]>>[C:1]([C:2]([C:3]([H:11])([H:12])[H:13])([N:4]([C:5][H:15])[H:14])[C:6]#[N:7])([H:8])([H:9])[H:10]"
C       -0.54508423       1.35472425      -0.38486228
C       -0.04060061      -0.04277971      -0.04021134
C       -1.09805996      -0.83125264       0.72155537
N        0.36100927      -0.77764492      -1.24310657
C        1.51352340      -1.03848192      -0.57055021
C        1.59540055       0.38338108       0.68480967
N        2.34009628       0.92825323       1.37258462
H       -0.83292758       1.89746474       0.51580375
H       -1.42369427       1.30086027      -1.03078627
H        0.22685106       1.93362345      -0.89213078
H       -2.02385970      -0.88175698       0.14480847
H       -0.79321658      -1.85985055       0.90881418
H       -1.30981101      -0.36297586       1.68357316
H        0.44206438      -0.19104064      -2.06234542
H        1.58830901      -1.81252380       0.19204365
15
Frame=15 idx=006956 GeodesicLength=0.8811338493800673 rxn_smarts="[C:1]([C:2]1([C:3]([H:11])([H:12])[H:13])[N:4]([H:14])[C@:5]1([C:6]#[N:7])[H:15])([H:8])([H:9])[H:10]>>[C:1]([C:2]([C:3]([H:11])([H:12])[H:13])([N:4]([C:5][H:15])[H:14])[C:6]#[N:7])([H:8])([H:9])[H:10]"
C       -0.54651887       1.35346970      -0.37709106
C       -0.04299353      -0.04494921      -0.03460147
C       -1.10973403      -0.83455637       0.71414008
N        0.36202752      -0.77778079      -1.23757673
C        1.50712434      -1.04183261      -0.56059135
C        1.61732420       0.39193178       0.68177801
N        2.37681461       0.94501676       1.34555339
H       -0.83807090       1.89434918       0.52358376
H       -1.42295619       1.30473560      -1.02635694
H        0.22714318       1.93419610      -0.87966257
H       -2.03016587      -0.88552930       0.12877291
H       -0.80841136      -1.86374637       0.90406176
H       -1.33214632      -0.36804066       1.67467447
H        0.43993314      -0.19726420      -2.06110535
H        1.60063010      -1.80999960       0.20442110
15
Frame=16 idx=006956 GeodesicLength=0.9396239659768196 rxn_smarts="[C:1]([C:2]1([C:3]([H:11])([H:12])[H:13])[N:4]([H:14])[C@:5]1([C:6]#[N:7])[H:15])([H:8])([H:9])[H:10]>>[C:1]([C:2]([C:3]([H:11])([H:12])[H:13])([N:4]([C:5][H:15])[H:14])[C:6]#[N:7])([H:8])([H:9])[H:10]"
C       -0.54791967       1.35215416      -0.36892450
C       -0.04554240      -0.04724606      -0.02861388
C       -1.12178628      -0.83799105       0.70646335
N        0.36322424      -0.77790508      -1.23165595
C        1.50069105      -1.04517383      -0.54992346
C        1.63969687       0.40067547       0.67839390
N        2.41408669       0.96218345       1.31652034
H       -0.84319007       1.89109160       0.53178544
H       -1.42207065       1.30871288      -1.02163296
H        0.22749181       1.93470623      -0.86670786
H       -2.03653849      -0.88929730       0.11215898
H       -0.82410402      -1.86779592       0.89901176
H       -1.35523390      -0.37332916       1.66534471
H        0.43807576      -0.20356273      -2.05944554
H        1.61311905      -1.80722265       0.21722565
