7
Frame=0 idx=004205 GeodesicLength=0.0 rxn_smarts="[o:1]1[c:2]([H:6])[n:3][c:4]([H:7])[n:5]1>>[C:2](#[N:3])[H:6].[O-:1][N+:5]#[C:4][H:7]"
O        0.54949473       1.40920057      -0.15328923
C        1.19443697      -0.63075098       0.08223140
N        0.20954349      -1.25105105       0.14365499
C       -1.28408885       0.09319546      -0.02232890
N       -0.63697463       1.08721671      -0.12834875
H        2.23116215      -0.37368426       0.06170538
H       -2.26357387      -0.33412648       0.01637511
7
Frame=1 idx=004205 GeodesicLength=0.060350711248549634 rxn_smarts="[o:1]1[c:2]([H:6])[n:3][c:4]([H:7])[n:5]1>>[C:2](#[N:3])[H:6].[O-:1][N+:5]#[C:4][H:7]"
O        0.55437564       1.38916315      -0.14305053
C        1.20002876      -0.63145808       0.10288047
N        0.22356906      -1.27208447       0.14636118
C       -1.28815732       0.08665860      -0.05937929
N       -0.64079179       1.08657763      -0.12272953
H        2.22931102      -0.35028546       0.04439664
H       -2.27833537      -0.30857136       0.03152106
7
Frame=2 idx=004205 GeodesicLength=0.12058148600109064 rxn_smarts="[o:1]1[c:2]([H:6])[n:3][c:4]([H:7])[n:5]1>>[C:2](#[N:3])[H:6].[O-:1][N+:5]#[C:4][H:7]"
O        0.55842153       1.36913983      -0.13567881
C        1.20524804      -0.63180394       0.12404983
N        0.23854226      -1.29344110       0.14478828
C       -1.29230119       0.08159424      -0.08599952
N       -0.64493107       1.08547842      -0.11940281
H        2.22591218      -0.32773356       0.02946351
H       -2.29089176      -0.28323389       0.04277952
7
Frame=3 idx=004205 GeodesicLength=0.18107986518480873 rxn_smarts="[o:1]1[c:2]([H:6])[n:3][c:4]([H:7])[n:5]1>>[C:2](#[N:3])[H:6].[O-:1][N+:5]#[C:4][H:7]"
O        0.56175457       1.35014772      -0.12161519
C        1.21116489      -0.63200588       0.14164112
N        0.25447450      -1.31378558       0.15369761
C       -1.29617101       0.07693241      -0.10617991
N       -0.64908370       1.08396534      -0.11931221
H        2.22075075      -0.30694221       0.00702416
H       -2.30289000      -0.25831181       0.04474442
7
Frame=4 idx=004205 GeodesicLength=0.2416112432857434 rxn_smarts="[o:1]1[c:2]([H:6])[n:3][c:4]([H:7])[n:5]1>>[C:2](#[N:3])[H:6].[O-:1][N+:5]#[C:4][H:7]"
O        0.56452246       1.33096912      -0.11107997
C        1.21711022      -0.63254632       0.15466143
N        0.27105620      -1.33468324       0.15892753
C       -1.30055197       0.07280142      -0.12199482
N       -0.65349804       1.08242651      -0.12009204
H        2.21574816      -0.28603787      -0.00814092
H       -2.31438704      -0.23292961       0.04771878
7
Frame=5 idx=004205 GeodesicLength=0.3016779723376506 rxn_smarts="[o:1]1[c:2]([H:6])[n:3][c:4]([H:7])[n:5]1>>[C:2](#[N:3])[H:6].[O-:1][N+:5]#[C:4][H:7]"
O        0.56676980       1.31194568      -0.10040786
C        1.22310725      -0.63328376       0.16546518
N        0.28889820      -1.35557219       0.16290928
C       -1.30530186       0.06883469      -0.13451628
N       -0.65786161       1.08085093      -0.12344353
H        2.21033251      -0.26560293      -0.02067947
H       -2.32594429      -0.20717242       0.05067268
7
Frame=6 idx=004205 GeodesicLength=0.36207685311184884 rxn_smarts="[o:1]1[c:2]([H:6])[n:3][c:4]([H:7])[n:5]1>>[C:2](#[N:3])[H:6].[O-:1][N+:5]#[C:4][H:7]"
O        0.56846505       1.29272646      -0.09235584
C        1.22917679      -0.63399973       0.17485522
N        0.30767719      -1.37731668       0.16320719
C       -1.31068434       0.06507003      -0.14352028
N       -0.66242250       1.07902784      -0.12805204
H        2.20522692      -0.24504863      -0.02857497
H       -2.33743911      -0.18045928       0.05444073
7
Frame=7 idx=004205 GeodesicLength=0.42259945516722736 rxn_smarts="[o:1]1[c:2]([H:6])[n:3][c:4]([H:7])[n:5]1>>[C:2](#[N:3])[H:6].[O-:1][N+:5]#[C:4][H:7]"
O        0.56975690       1.27382967      -0.08248141
C        1.23610228      -0.63446730       0.18299404
N        0.32752811      -1.39835078       0.17104838
C       -1.31590631       0.06136956      -0.15024104
N       -0.66707967       1.07740337      -0.12874955
H        2.19943535      -0.22590399      -0.04293356
H       -2.34983666      -0.15388054       0.05036315
7
Frame=8 idx=004205 GeodesicLength=0.4830823764261169 rxn_smarts="[o:1]1[c:2]([H:6])[n:3][c:4]([H:7])[n:5]1>>[C:2](#[N:3])[H:6].[O-:1][N+:5]#[C:4][H:7]"
O        0.57047817       1.25452443      -0.07616901
C        1.24277491      -0.63497914       0.19040372
N        0.34860196      -1.42031063       0.17263426
C       -1.32199719       0.05780295      -0.15400594
N       -0.67203224       1.07548227      -0.13208834
H        2.19412785      -0.20645380      -0.05036304
H       -2.36195346      -0.12606608       0.04958835
7
Frame=9 idx=004205 GeodesicLength=0.5437248657262532 rxn_smarts="[o:1]1[c:2]([H:6])[n:3][c:4]([H:7])[n:5]1>>[C:2](#[N:3])[H:6].[O-:1][N+:5]#[C:4][H:7]"
O        0.57084007       1.23538649      -0.06897811
C        1.24993649      -0.63541183       0.19697785
N        0.37092095      -1.44228792       0.17630348
C       -1.32841541       0.05417616      -0.15513534
N       -0.67696688       1.07350065      -0.13500862
H        2.18860118      -0.18764920      -0.05961572
H       -2.37491640      -0.09771435       0.04545646
7
Frame=10 idx=004205 GeodesicLength=0.604386670960107 rxn_smarts="[o:1]1[c:2]([H:6])[n:3][c:4]([H:7])[n:5]1>>[C:2](#[N:3])[H:6].[O-:1][N+:5]#[C:4][H:7]"
O        0.57069975       1.21614710      -0.06169123
C        1.25746052      -0.63581474       0.20280106
N        0.39462485      -1.46445637       0.18046162
C       -1.33526349       0.05054213      -0.15305569
N       -0.68199366       1.07133112      -0.13820221
H        2.18294739      -0.16924907      -0.06917248
H       -2.38847535      -0.06850017       0.03885894
7
Frame=11 idx=004205 GeodesicLength=0.6652704637323166 rxn_smarts="[o:1]1[c:2]([H:6])[n:3][c:4]([H:7])[n:5]1>>[C:2](#[N:3])[H:6].[O-:1][N+:5]#[C:4][H:7]"
O        0.56997234       1.19667293      -0.05506842
C        1.26503151      -0.63627729       0.20816109
N        0.41978545      -1.48736578       0.18125905
C       -1.34300653       0.04682821      -0.14699380
N       -0.68703403       1.06857909      -0.14510730
H        2.17773788      -0.15061457      -0.07532864
H       -2.40248661      -0.03782259       0.03307801
7
Frame=12 idx=004205 GeodesicLength=0.7259798210060956 rxn_smarts="[o:1]1[c:2]([H:6])[n:3][c:4]([H:7])[n:5]1>>[C:2](#[N:3])[H:6].[O-:1][N+:5]#[C:4][H:7]"
O        0.56884695       1.17732313      -0.04702009
C        1.27313098      -0.63669185       0.21262444
N        0.44639240      -1.50997567       0.18525956
C       -1.35105496       0.04335868      -0.13759122
N       -0.69216077       1.06573506      -0.15039140
H        2.17170063      -0.13294603      -0.08493587
H       -2.41685522      -0.00680331       0.02205458
7
Frame=13 idx=004205 GeodesicLength=0.7871793080051813 rxn_smarts="[o:1]1[c:2]([H:6])[n:3][c:4]([H:7])[n:5]1>>[C:2](#[N:3])[H:6].[O-:1][N+:5]#[C:4][H:7]"
O        0.56661516       1.15712169      -0.04250954
C        1.28037290      -0.63745856       0.21725638
N        0.47483575      -1.53438328       0.17685626
C       -1.36090928       0.04008700      -0.12188896
N       -0.69710267       1.06094086      -0.16798677
H        2.16753539      -0.11342872      -0.08141399
H       -2.43134724       0.02712101       0.01968662
7
Frame=14 idx=004205 GeodesicLength=0.8476699941345913 rxn_smarts="[o:1]1[c:2]([H:6])[n:3][c:4]([H:7])[n:5]1>>[C:2](#[N:3])[H:6].[O-:1][N+:5]#[C:4][H:7]"
O        0.56469441       1.13740430      -0.03557691
C        1.28883591      -0.63798244       0.22009198
N        0.50406448      -1.55711296       0.18036900
C       -1.37043226       0.03817444      -0.10062976
N       -0.70237611       1.05737172      -0.17316223
H        2.16130187      -0.09663868      -0.09140447
H       -2.44608830       0.05878362       0.00031239
7
Frame=15 idx=004205 GeodesicLength=0.9090877140438449 rxn_smarts="[o:1]1[c:2]([H:6])[n:3][c:4]([H:7])[n:5]1>>[C:2](#[N:3])[H:6].[O-:1][N+:5]#[C:4][H:7]"
O        0.56264072       1.11770455      -0.03031222
C        1.29722901      -0.63865968       0.22231944
N        0.53412899      -1.58041984       0.18305591
C       -1.38103519       0.03802338      -0.07243523
N       -0.70784847       1.05378869      -0.17835515
H        2.15522084      -0.08012935      -0.10083729
H       -2.46033591       0.08969225      -0.02343546
7
Frame=16 idx=004205 GeodesicLength=0.9693336778646578 rxn_smarts="[o:1]1[c:2]([H:6])[n:3][c:4]([H:7])[n:5]1>>[C:2](#[N:3])[H:6].[O-:1][N+:5]#[C:4][H:7]"
O        0.55976243       1.09709679      -0.03168960
C        1.30342435      -0.63940164       0.22563767
N        0.56486978      -1.60366432       0.17483166
C       -1.39271120       0.03987476      -0.04422472
N       -0.71337007       1.04892613      -0.19206577
H        2.15012679      -0.06311167      -0.09658764
H       -2.47210208       0.12027996      -0.03590159
