19
Frame=0 idx=006573 GeodesicLength=0.0 rxn_smarts="[C:1]([C@@:2]1([H:11])[O:3][C:4]([H:12])([H:13])[C:5]1([C:6]([H:14])([H:15])[H:16])[C:7]([H:17])([H:18])[H:19])([H:8])([H:9])[H:10]>>[C:1]([C@@:2]([O:3][H:17])([C:5]1([C:6]([H:14])([H:15])[H:16])[C:4]([H:12])([H:13])[C:7]1([H:18])[H:19])[H:11])([H:8])([H:9])[H:10]"
C        1.73731939      -0.76951630      -0.85657748
C        0.95293336       0.32527174      -0.18129662
O        0.57650222       1.40265940      -1.07628466
C       -0.83108996       1.51013922       0.31463123
C       -0.47807001       0.04825841       0.34596888
C       -0.56870618      -0.71350281       1.65439271
C       -1.30639812      -0.30987529      -0.85334444
H        2.66355487      -0.37029825      -1.27231916
H        1.99524355      -1.54203230      -0.12894351
H        1.16760676      -1.22947724      -1.66394505
H        1.55098327       0.78954249       0.60898510
H       -1.83758049       1.80852869       0.04832745
H       -0.21942047       2.26882998       0.79600431
H        0.07691246      -0.28632264       2.42975439
H       -0.27409438      -1.75413229       1.49359718
H       -1.59540232      -0.72103271       2.02396746
H       -0.20615285       0.94905332      -1.56212369
H       -2.37882336      -0.20211099      -0.71284060
H       -1.02531769      -1.20398251      -1.40795348
19
Frame=1 idx=006573 GeodesicLength=0.14489724067003334 rxn_smarts="[C:1]([C@@:2]1([H:11])[O:3][C:4]([H:12])([H:13])[C:5]1([C:6]([H:14])([H:15])[H:16])[C:7]([H:17])([H:18])[H:19])([H:8])([H:9])[H:10]>>[C:1]([C@@:2]([O:3][H:17])([C:5]1([C:6]([H:14])([H:15])[H:16])[C:4]([H:12])([H:13])[C:7]1([H:18])[H:19])[H:11])([H:8])([H:9])[H:10]"
C        1.74633176      -0.77079561      -0.84808313
C        0.96160186       0.32404472      -0.17318020
O        0.58860055       1.39800065      -1.07212688
C       -0.83278755       1.50752956       0.30453368
C       -0.47133150       0.04857989       0.34627002
C       -0.56366839      -0.70628763       1.65741456
C       -1.31704585      -0.29540637      -0.84167468
H        2.67794002      -0.37275973      -1.25301392
H        1.99325908      -1.55051623      -0.12446614
H        1.18386612      -1.22084824      -1.66616702
H        1.55930740       0.78454599       0.61961974
H       -1.84544197       1.80900915       0.06625988
H       -0.23020561       2.27345442       0.78589847
H        0.08548913      -0.27976724       2.43000653
H       -0.27709422      -1.74960725       1.49996830
H       -1.58765472      -0.70210395       2.03460530
H       -0.19297701       0.91207315      -1.58391030
H       -2.39135733      -0.28528346      -0.67347322
H       -1.08683177      -1.12386180      -1.50848101
19
Frame=2 idx=006573 GeodesicLength=0.28953491068099496 rxn_smarts="[C:1]([C@@:2]1([H:11])[O:3][C:4]([H:12])([H:13])[C:5]1([C:6]([H:14])([H:15])[H:16])[C:7]([H:17])([H:18])[H:19])([H:8])([H:9])[H:10]>>[C:1]([C@@:2]([O:3][H:17])([C:5]1([C:6]([H:14])([H:15])[H:16])[C:4]([H:12])([H:13])[C:7]1([H:18])[H:19])[H:11])([H:8])([H:9])[H:10]"
C        1.75490859      -0.77276209      -0.83956945
C        0.97014104       0.32245851      -0.16510263
O        0.60034136       1.39284578      -1.06801149
C       -0.83521861       1.50406173       0.29395466
C       -0.46471830       0.04831692       0.34656729
C       -0.55839870      -0.69867811       1.66107866
C       -1.32654630      -0.28370603      -0.83049770
H        2.69136926      -0.37603299      -1.23466738
H        1.99161743      -1.55900813      -0.11974361
H        1.19924523      -1.21384782      -1.66727817
H        1.56748621       0.77931211       0.63011578
H       -1.85369433       1.80771105       0.08445705
H       -0.24188808       2.27738124       0.77501981
H        0.09362265      -0.27166462       2.43079764
H       -0.27886658      -1.74447989       1.50788779
H       -1.57982554      -0.68358672       2.04500679
H       -0.18013661       0.87315313      -1.60508812
H       -2.39387608      -0.37475230      -0.63879341
H       -1.15556265      -1.02672175      -1.60613349
19
Frame=3 idx=006573 GeodesicLength=0.4333832849879105 rxn_smarts="[C:1]([C@@:2]1([H:11])[O:3][C:4]([H:12])([H:13])[C:5]1([C:6]([H:14])([H:15])[H:16])[C:7]([H:17])([H:18])[H:19])([H:8])([H:9])[H:10]>>[C:1]([C@@:2]([O:3][H:17])([C:5]1([C:6]([H:14])([H:15])[H:16])[C:4]([H:12])([H:13])[C:7]1([H:18])[H:19])[H:11])([H:8])([H:9])[H:10]"
C        1.76326242      -0.77522794      -0.83120246
C        0.97860093       0.32052031      -0.15714819
O        0.61193119       1.38732800      -1.06394126
C       -0.83833935       1.49973271       0.28267553
C       -0.45822983       0.04749954       0.34662006
C       -0.55311680      -0.69078602       1.66503050
C       -1.33467633      -0.27473909      -0.82039971
H        2.70413241      -0.37983212      -1.21722927
H        1.99031141      -1.56754608      -0.11506351
H        1.21415004      -1.20803084      -1.66777246
H        1.57549309       0.77373906       0.64050008
H       -1.86216241       1.80470773       0.10243664
H       -0.25446653       2.28051758       0.76330331
H        0.10096277      -0.26219385       2.43190882
H       -0.27953965      -1.73883781       1.51694122
H       -1.57229553      -0.66570900       2.05449171
H       -0.16741316       0.83239875      -1.62583418
H       -2.38549311      -0.47006141      -0.61053205
H       -1.23311157      -0.91347952      -1.69478477
19
Frame=4 idx=006573 GeodesicLength=0.5758184804950496 rxn_smarts="[C:1]([C@@:2]1([H:11])[O:3][C:4]([H:12])([H:13])[C:5]1([C:6]([H:14])([H:15])[H:16])[C:7]([H:17])([H:18])[H:19])([H:8])([H:9])[H:10]>>[C:1]([C@@:2]([O:3][H:17])([C:5]1([C:6]([H:14])([H:15])[H:16])[C:4]([H:12])([H:13])[C:7]1([H:18])[H:19])[H:11])([H:8])([H:9])[H:10]"
C        1.77184340      -0.77792384      -0.82294592
C        0.98703471       0.31832795      -0.14946720
O        0.62338845       1.38138032      -1.06025544
C       -0.84193380       1.49468861       0.27053329
C       -0.45186665       0.04622205       0.34614830
C       -0.54811830      -0.68290704       1.66870603
C       -1.34151707      -0.26809238      -0.81181777
H        2.71673274      -0.38363879      -1.20038614
H        1.98975271      -1.57585176      -0.11034067
H        1.22935325      -1.20313727      -1.66787305
H        1.58324736       0.76801403       0.65069530
H       -1.87053968       1.80040288       0.12012123
H       -0.26761903       2.28292683       0.75061010
H        0.10703798      -0.25179377       2.43302099
H       -0.27924751      -1.73291874       1.52630873
H       -1.56556655      -0.64903857       2.06213989
H       -0.15460997       0.78929807      -1.64654986
H       -2.36580983      -0.56949231      -0.59049319
H       -1.32156224      -0.78646629      -1.76815461
19
Frame=5 idx=006573 GeodesicLength=0.7167976622308287 rxn_smarts="[C:1]([C@@:2]1([H:11])[O:3][C:4]([H:12])([H:13])[C:5]1([C:6]([H:14])([H:15])[H:16])[C:7]([H:17])([H:18])[H:19])([H:8])([H:9])[H:10]>>[C:1]([C@@:2]([O:3][H:17])([C:5]1([C:6]([H:14])([H:15])[H:16])[C:4]([H:12])([H:13])[C:7]1([H:18])[H:19])[H:11])([H:8])([H:9])[H:10]"
C        1.78101703      -0.78081433      -0.81446280
C        0.99547171       0.31599529      -0.14227574
O        0.63453705       1.37465836      -1.05763181
C       -0.84576654       1.48914820       0.25733204
C       -0.44559616       0.04465019       0.34492966
C       -0.54364136      -0.67519901       1.67162931
C       -1.34725155      -0.26317473      -0.80495774
H        2.72958916      -0.38735095      -1.18362360
H        1.99029719      -1.58363790      -0.10492097
H        1.24550787      -1.19945956      -1.66727797
H        1.59064088       0.76249605       0.66045056
H       -1.87861175       1.79509182       0.13788893
H       -0.28088212       2.28482239       0.73645330
H        0.11150282      -0.24078673       2.43383336
H       -0.27824239      -1.72685847       1.53528525
H       -1.56003470      -0.63387739       2.06722919
H       -0.14171034       0.74282231      -1.66771623
H       -2.33349651      -0.67382828      -0.58037138
H       -1.42333027      -0.64469722      -1.82179336
19
Frame=6 idx=006573 GeodesicLength=0.8561818443520054 rxn_smarts="[C:1]([C@@:2]1([H:11])[O:3][C:4]([H:12])([H:13])[C:5]1([C:6]([H:14])([H:15])[H:16])[C:7]([H:17])([H:18])[H:19])([H:8])([H:9])[H:10]>>[C:1]([C@@:2]([O:3][H:17])([C:5]1([C:6]([H:14])([H:15])[H:16])[C:4]([H:12])([H:13])[C:7]1([H:18])[H:19])[H:11])([H:8])([H:9])[H:10]"
C        1.79077202      -0.78402902      -0.80545987
C        1.00377022       0.31365759      -0.13588374
O        0.64481983       1.36663794      -1.05708322
C       -0.84953295       1.48352016       0.24316368
C       -0.43950579       0.04304000       0.34304048
C       -0.54005526      -0.66774496       1.67369179
C       -1.35218845      -0.25938696      -0.79965871
H        2.74248241      -0.39106332      -1.16729320
H        1.99227577      -1.59056261      -0.09797194
H        1.26254290      -1.19797029      -1.66532845
H        1.59760552       0.75771618       0.66924976
H       -1.88601533       1.78925814       0.15668010
H       -0.29341251       2.28674533       0.72017219
H        0.11393062      -0.22925036       2.43434789
H       -0.27666903      -1.72070596       1.54370241
H       -1.55625594      -0.62056956       2.06930067
H       -0.12937224       0.69163099      -1.68975009
H       -2.28602005      -0.78526048      -0.58584793
H       -1.53917172      -0.48566281      -1.84907183
19
Frame=7 idx=006573 GeodesicLength=0.9935351859278876 rxn_smarts="[C:1]([C@@:2]1([H:11])[O:3][C:4]([H:12])([H:13])[C:5]1([C:6]([H:14])([H:15])[H:16])[C:7]([H:17])([H:18])[H:19])([H:8])([H:9])[H:10]>>[C:1]([C@@:2]([O:3][H:17])([C:5]1([C:6]([H:14])([H:15])[H:16])[C:4]([H:12])([H:13])[C:7]1([H:18])[H:19])[H:11])([H:8])([H:9])[H:10]"
C        1.80099000      -0.78720661      -0.79572295
C        1.01149726       0.31191018      -0.13098541
O        0.65292144       1.35665586      -1.06021161
C       -0.85247348       1.47911878       0.22899384
C       -0.43380207       0.04243752       0.34053289
C       -0.53814101      -0.66098008       1.67380413
C       -1.35735615      -0.25406495      -0.79536901
H        2.75537249      -0.39449337      -1.15091454
H        1.99565107      -1.59577073      -0.08880049
H        1.28058721      -1.19889478      -1.66157493
H        1.60372154       0.75448495       0.67613434
H       -1.89158268       1.78524084       0.17856426
H       -0.30329077       2.28960785       0.70177971
H        0.11354970      -0.21864692       2.43389001
H       -0.27552876      -1.71475795       1.54925716
H       -1.55527753      -0.60999291       2.06671804
H       -0.11972194       0.63445471      -1.71296478
H       -2.22078279      -0.89984019      -0.61362832
H       -1.66633352      -0.31926220      -1.83950234
19
Frame=8 idx=006573 GeodesicLength=1.129479165909747 rxn_smarts="[C:1]([C@@:2]1([H:11])[O:3][C:4]([H:12])([H:13])[C:5]1([C:6]([H:14])([H:15])[H:16])[C:7]([H:17])([H:18])[H:19])([H:8])([H:9])[H:10]>>[C:1]([C@@:2]([O:3][H:17])([C:5]1([C:6]([H:14])([H:15])[H:16])[C:4]([H:12])([H:13])[C:7]1([H:18])[H:19])[H:11])([H:8])([H:9])[H:10]"
C        1.81069958      -0.78996103      -0.78580757
C        1.01789501       0.31108275      -0.12784689
O        0.65752934       1.34484086      -1.06733187
C       -0.85425764       1.47693484       0.21658580
C       -0.42893244       0.04331869       0.33838792
C       -0.53817051      -0.65539114       1.67250156
C       -1.36459194      -0.24583189      -0.78994421
H        2.76664988      -0.39693167      -1.13664734
H        2.00047387      -1.59850888      -0.07767738
H        1.29795311      -1.20265422      -1.65589929
H        1.60885326       0.75323684       0.68049462
H       -1.89433584       1.78504330       0.20559195
H       -0.30918175       2.29439253       0.68219081
H        0.11041075      -0.20956301       2.43295023
H       -0.27443297      -1.70940267       1.55232170
H       -1.55719469      -0.60294357       2.06040079
H       -0.11596070       0.57167011      -1.73629462
H       -2.14340688      -1.00421170      -0.67168530
H       -1.78999943      -0.16512013      -1.79229092
19
Frame=9 idx=006573 GeodesicLength=1.265950456471335 rxn_smarts="[C:1]([C@@:2]1([H:11])[O:3][C:4]([H:12])([H:13])[C:5]1([C:6]([H:14])([H:15])[H:16])[C:7]([H:17])([H:18])[H:19])([H:8])([H:9])[H:10]>>[C:1]([C@@:2]([O:3][H:17])([C:5]1([C:6]([H:14])([H:15])[H:16])[C:4]([H:12])([H:13])[C:7]1([H:18])[H:19])[H:11])([H:8])([H:9])[H:10]"
C        1.81929898      -0.79198465      -0.77621082
C        1.02291846       0.31138958      -0.12625852
O        0.65874104       1.33197532      -1.07731939
C       -0.85513546       1.47723622       0.20658626
C       -0.42474883       0.04610774       0.33717478
C       -0.53975071      -0.65086588       1.67014734
C       -1.37434869      -0.23422592      -0.78196731
H        2.77652261      -0.39861783      -1.12332093
H        2.00482536      -1.59949345      -0.06595080
H        1.31432603      -1.20724988      -1.64968884
H        1.61312529       0.75346123       0.68271667
H       -1.89409668       1.78927846       0.23675264
H       -0.31159829       2.30093814       0.66284800
H        0.10571407      -0.20284078       2.43165637
H       -0.27435620      -1.70473990       1.55262500
H       -1.56115027      -0.59821743       2.05184715
H       -0.11928188       0.50481821      -1.75829571
H       -2.05694310      -1.08738716      -0.75573067
H       -1.90406173      -0.03958203      -1.71761122
19
Frame=10 idx=006573 GeodesicLength=1.4029810528301931 rxn_smarts="[C:1]([C@@:2]1([H:11])[O:3][C:4]([H:12])([H:13])[C:5]1([C:6]([H:14])([H:15])[H:16])[C:7]([H:17])([H:18])[H:19])([H:8])([H:9])[H:10]>>[C:1]([C@@:2]([O:3][H:17])([C:5]1([C:6]([H:14])([H:15])[H:16])[C:4]([H:12])([H:13])[C:7]1([H:18])[H:19])[H:11])([H:8])([H:9])[H:10]"
C        1.82816018      -0.79297791      -0.76669742
C        1.02708855       0.31230189      -0.12563318
O        0.65740578       1.31821330      -1.08899149
C       -0.85618475       1.47794075       0.19782398
C       -0.42090178       0.04907752       0.33657416
C       -0.54156125      -0.64793284       1.66738509
C       -1.38545319      -0.22282617      -0.77207457
H        2.78613512      -0.39836762      -1.11060135
H        2.01053976      -1.59857169      -0.05354242
H        1.33143282      -1.21241958      -1.64301928
H        1.61663028       0.75505311       0.68362842
H       -1.89209720       1.79503857       0.26903828
H       -0.31306136       2.30784014       0.64332954
H        0.10091887      -0.19807319       2.43016027
H       -0.27366082      -1.70139668       1.55178065
H       -1.56533107      -0.59581251       2.04291834
H       -0.12752084       0.43295385      -1.77832111
H       -1.97659661      -1.13761678      -0.85632031
H       -2.00594250       0.05757583      -1.62743763
19
Frame=11 idx=006573 GeodesicLength=1.5411643809911015 rxn_smarts="[C:1]([C@@:2]1([H:11])[O:3][C:4]([H:12])([H:13])[C:5]1([C:6]([H:14])([H:15])[H:16])[C:7]([H:17])([H:18])[H:19])([H:8])([H:9])[H:10]>>[C:1]([C@@:2]([O:3][H:17])([C:5]1([C:6]([H:14])([H:15])[H:16])[C:4]([H:12])([H:13])[C:7]1([H:18])[H:19])[H:11])([H:8])([H:9])[H:10]"
C        1.83737426      -0.79316304      -0.75734981
C        1.03078578       0.31357368      -0.12568098
O        0.65479733       1.30408627      -1.10125099
C       -0.85776056       1.47849287       0.18929571
C       -0.41715027       0.05206116       0.33614246
C       -0.54337110      -0.64581287       1.66424403
C       -1.39665476      -0.21232994      -0.76133152
H        2.79622133      -0.39694519      -1.09713714
H        2.01620902      -1.59692981      -0.04139121
H        1.35000703      -1.21697650      -1.63686616
H        1.61949389       0.75723578       0.68384805
H       -1.88888702       1.80107136       0.30104747
H       -0.31478149       2.31442880       0.62355555
H        0.09642522      -0.19458062       2.42823770
H       -0.27310456      -1.69878395       1.55004515
H       -1.56930099      -0.59406356       2.03401812
H       -0.13878350       0.35665847      -1.79597907
H       -1.90177025      -1.15800084      -0.96751635
H       -2.09974937       0.12997793      -1.52593101
19
Frame=12 idx=006573 GeodesicLength=1.6798207275910901 rxn_smarts="[C:1]([C@@:2]1([H:11])[O:3][C:4]([H:12])([H:13])[C:5]1([C:6]([H:14])([H:15])[H:16])[C:7]([H:17])([H:18])[H:19])([H:8])([H:9])[H:10]>>[C:1]([C@@:2]([O:3][H:17])([C:5]1([C:6]([H:14])([H:15])[H:16])[C:4]([H:12])([H:13])[C:7]1([H:18])[H:19])[H:11])([H:8])([H:9])[H:10]"
C        1.84847152      -0.79220533      -0.74775635
C        1.03447158       0.31487692      -0.12622255
O        0.65191340       1.28972299      -1.11376862
C       -0.86019480       1.47769797       0.17989592
C       -0.41336873       0.05387056       0.33480629
C       -0.54474649      -0.64488503       1.66026965
C       -1.40692504      -0.20411096      -0.75188361
H        2.80799295      -0.39312169      -1.08252286
H        2.02400350      -1.59398126      -0.02884252
H        1.37202460      -1.22103487      -1.63088536
H        1.62161611       0.76006657       0.68385453
H       -1.88508178       1.80573064       0.33120180
H       -0.31785570       2.31984777       0.60292574
H        0.09232589      -0.19201975       2.42539952
H       -0.27173322      -1.69728635       1.54756939
H       -1.57263277      -0.59341796       2.02476415
H       -0.15035609       0.27484299      -1.81155861
H       -1.84551034      -1.14796594      -1.08023343
H       -2.18441460       0.18337274      -1.41701306
19
Frame=13 idx=006573 GeodesicLength=1.8190338523732972 rxn_smarts="[C:1]([C@@:2]1([H:11])[O:3][C:4]([H:12])([H:13])[C:5]1([C:6]([H:14])([H:15])[H:16])[C:7]([H:17])([H:18])[H:19])([H:8])([H:9])[H:10]>>[C:1]([C@@:2]([O:3][H:17])([C:5]1([C:6]([H:14])([H:15])[H:16])[C:4]([H:12])([H:13])[C:7]1([H:18])[H:19])[H:11])([H:8])([H:9])[H:10]"
C        1.86145865      -0.79010758      -0.73797391
C        1.03827415       0.31616035      -0.12716561
O        0.64954739       1.27558467      -1.12614323
C       -0.86335041       1.47569129       0.16928888
C       -0.40959431       0.05461585       0.33213397
C       -0.54592367      -0.64480275       1.65515070
C       -1.41595890      -0.19751402      -0.74474022
H        2.82155647      -0.38704325      -1.06649596
H        2.03353612      -1.58998895      -0.01622517
H        1.39766866      -1.22413606      -1.62533779
H        1.62300633       0.76318952       0.68394926
H       -1.88064103       1.80915388       0.35904167
H       -0.32226374       2.32405639       0.58153793
H        0.08832462      -0.19015509       2.42139599
H       -0.27008822      -1.69660439       1.54400052
H       -1.57561589      -0.59335770       2.01465167
H       -0.16093582       0.18759308      -1.82484831
H       -1.80846881      -1.11269654      -1.19052908
H       -2.26053159       0.22036131      -1.30169130
19
Frame=14 idx=006573 GeodesicLength=1.9590622714546984 rxn_smarts="[C:1]([C@@:2]1([H:11])[O:3][C:4]([H:12])([H:13])[C:5]1([C:6]([H:14])([H:15])[H:16])[C:7]([H:17])([H:18])[H:19])([H:8])([H:9])[H:10]>>[C:1]([C@@:2]([O:3][H:17])([C:5]1([C:6]([H:14])([H:15])[H:16])[C:4]([H:12])([H:13])[C:7]1([H:18])[H:19])[H:11])([H:8])([H:9])[H:10]"
C        1.87640814      -0.78682683      -0.72797925
C        1.04230080       0.31743781      -0.12853243
O        0.64825410       1.26193763      -1.13833359
C       -0.86702249       1.47267033       0.15721679
C       -0.40585805       0.05442356       0.32772367
C       -0.54719197      -0.64540561       1.64849079
C       -1.42357651      -0.19186041      -0.74081344
H        2.83705692      -0.37872845      -1.04881960
H        2.04468189      -1.58499741      -0.00356520
H        1.42712702      -1.22601638      -1.62027388
H        1.62363996       0.76647906       0.68425051
H       -1.87547234       1.81143785       0.38442828
H       -0.32777725       2.32714501       0.55932152
H        0.08386386      -0.18877709       2.41599128
H       -0.26847440      -1.69656550       1.53892123
H       -1.57869153      -0.59382428       2.00290170
H       -0.16966279       0.09454338      -1.83553348
H       -1.79167729      -1.05592622      -1.29563137
H       -2.32792807       0.24285355      -1.17976355
19
Frame=15 idx=006573 GeodesicLength=2.0998169915992024 rxn_smarts="[C:1]([C@@:2]1([H:11])[O:3][C:4]([H:12])([H:13])[C:5]1([C:6]([H:14])([H:15])[H:16])[C:7]([H:17])([H:18])[H:19])([H:8])([H:9])[H:10]>>[C:1]([C@@:2]([O:3][H:17])([C:5]1([C:6]([H:14])([H:15])[H:16])[C:4]([H:12])([H:13])[C:7]1([H:18])[H:19])[H:11])([H:8])([H:9])[H:10]"
C        1.89286010      -0.78244000      -0.71788816
C        1.04650562       0.31883051      -0.13029887
O        0.64814984       1.24909609      -1.15031590
C       -0.87112660       1.46913451       0.14371882
C       -0.40223660       0.05371521       0.32166455
C       -0.54874502      -0.64650794       1.64027457
C       -1.43002580      -0.18623589      -0.74021359
H        2.85413200      -0.36852063      -1.02953198
H        2.05663981      -1.57938276       0.00880774
H        1.45981376      -1.22638234      -1.61586727
H        1.62361481       0.76983249       0.68482027
H       -1.86966172       1.81309435       0.40705003
H       -0.33413131       2.32948844       0.53646439
H        0.07887509      -0.18796736       2.40925003
H       -0.26742251      -1.69706926       1.53204600
H       -1.58210877      -0.59456478       1.98932718
H       -0.17666035      -0.00489273      -1.84271150
H       -1.79283161      -0.97993578      -1.39457136
H       -2.38564074       0.25070786      -1.05202495
19
Frame=16 idx=006573 GeodesicLength=2.2412030183674996 rxn_smarts="[C:1]([C@@:2]1([H:11])[O:3][C:4]([H:12])([H:13])[C:5]1([C:6]([H:14])([H:15])[H:16])[C:7]([H:17])([H:18])[H:19])([H:8])([H:9])[H:10]>>[C:1]([C@@:2]([O:3][H:17])([C:5]1([C:6]([H:14])([H:15])[H:16])[C:4]([H:12])([H:13])[C:7]1([H:18])[H:19])[H:11])([H:8])([H:9])[H:10]"
C        1.91024345      -0.77707371      -0.70781815
C        1.05057389       0.32031422      -0.13252668
O        0.64853671       1.23668465      -1.16235180
C       -0.87588974       1.46507853       0.12918905
C       -0.39886867       0.05256037       0.31446729
C       -0.55040320      -0.64803909       1.63101294
C       -1.43591879      -0.18060842      -0.74209037
H        2.87206735      -0.35662089      -1.00910450
H        2.06905379      -1.57317298       0.02080693
H        1.49487674      -1.22540460      -1.61197159
H        1.62283035       0.77339302       0.68531166
H       -1.86372804       1.81405464       0.42675883
H       -0.34147538       2.33120477       0.51296439
H        0.07363614      -0.18755808       2.40151968
H       -0.26667050      -1.69801132       1.52382806
H       -1.58567247      -0.59568595       1.97449550
H       -0.18308591      -0.11277216      -1.84449117
H       -1.80899453      -0.88322451      -1.48837624
H       -2.43111119       0.24488149      -0.92162384
