15
Frame=0 idx=008217 GeodesicLength=0.0 rxn_smarts="[C:1]1([H:8])([H:9])[O:2][C@@:3]2([H:10])[C:4]([H:11])=[C:5]([H:12])[C:6]([H:13])([H:14])[C@@:7]12[H:15]>>[C:1]1([H:8])([H:9])[O:2][C:3]([H:10])([H:15])[C-:4]([H:11])[C@@:5]2([H:12])[C:6]([H:13])([H:14])[C+:7]12"
C       -1.39793850      -0.34237022      -0.74505555
O       -1.06556449      -1.52625091      -0.03693629
C       -0.11993731      -1.09133399       0.90824602
C        1.21284923      -0.72422440       0.33846181
C        1.36762850       0.48447012      -0.18592581
C        0.21796461       1.45783036      -0.09942497
C       -1.09020620       0.82019482       0.22645528
H       -0.81362729      -0.27911104      -1.67823217
H       -2.45857725      -0.38550308      -0.99919978
H       -0.06644225      -1.81594811       1.72211543
H        2.01139730      -1.45664614       0.34229017
H        2.30001469       0.79614880      -0.64496730
H        0.46394284       2.28831999       0.56884547
H        0.04242787       1.91101483      -1.09004546
H       -0.60393169      -0.13659107       1.37337310
15
Frame=1 idx=008217 GeodesicLength=0.08944407125071406 rxn_smarts="[C:1]1([H:8])([H:9])[O:2][C@@:3]2([H:10])[C:4]([H:11])=[C:5]([H:12])[C:6]([H:13])([H:14])[C@@:7]12[H:15]>>[C:1]1([H:8])([H:9])[O:2][C:3]([H:10])([H:15])[C-:4]([H:11])[C@@:5]2([H:12])[C:6]([H:13])([H:14])[C+:7]12"
C       -1.41093250      -0.33587302      -0.73820217
O       -1.05234699      -1.53259678      -0.06571235
C       -0.12037863      -1.10048959       0.89416747
C        1.21543368      -0.72475113       0.33937307
C        1.37369621       0.48841535      -0.17203795
C        0.22305235       1.46121502      -0.12268594
C       -1.06648921       0.81042457       0.23357612
H       -0.86530475      -0.26209427      -1.69304243
H       -2.48165712      -0.37492470      -0.94865503
H       -0.06594465      -1.84316625       1.69211658
H        2.02494692      -1.44477712       0.37009073
H        2.32432357       0.81329852      -0.58243995
H        0.46393532       2.30976979       0.52436318
H        0.05359697       1.88636793      -1.12587006
H       -0.61593119      -0.15081832       1.39495873
15
Frame=2 idx=008217 GeodesicLength=0.17862264951603657 rxn_smarts="[C:1]1([H:8])([H:9])[O:2][C@@:3]2([H:10])[C:4]([H:11])=[C:5]([H:12])[C:6]([H:13])([H:14])[C@@:7]12[H:15]>>[C:1]1([H:8])([H:9])[O:2][C:3]([H:10])([H:15])[C-:4]([H:11])[C@@:5]2([H:12])[C:6]([H:13])([H:14])[C+:7]12"
C       -1.42387617      -0.32875301      -0.73076444
O       -1.03794893      -1.53757455      -0.09652713
C       -0.12051361      -1.10962575       0.87916270
C        1.21847204      -0.72510062       0.34043193
C        1.38018588       0.49291560      -0.15661132
C        0.22856848       1.46382242      -0.14691428
C       -1.04158048       0.80056815       0.24026091
H       -0.91997510      -0.24309559      -1.70655539
H       -2.50304380      -0.36506669      -0.89508381
H       -0.06565251      -1.87015939       1.66056198
H        2.03790736      -1.43231358       0.39918149
H        2.34620336       0.83066907      -0.51808609
H        0.46340843       2.33043026       0.47791739
H        0.06631045       1.85937657      -1.16243440
H       -0.62846541      -0.16609290       1.41546045
15
Frame=3 idx=008217 GeodesicLength=0.26764874655364534 rxn_smarts="[C:1]1([H:8])([H:9])[O:2][C@@:3]2([H:10])[C:4]([H:11])=[C:5]([H:12])[C:6]([H:13])([H:14])[C@@:7]12[H:15]>>[C:1]1([H:8])([H:9])[O:2][C:3]([H:10])([H:15])[C-:4]([H:11])[C@@:5]2([H:12])[C:6]([H:13])([H:14])[C+:7]12"
C       -1.43688952      -0.32107230      -0.72269205
O       -1.02250355      -1.54114540      -0.12925756
C       -0.12036634      -1.11881118       0.86332619
C        1.22217260      -0.72527181       0.34189060
C        1.38723700       0.49815886      -0.13933773
C        0.23456022       1.46576590      -0.17217761
C       -1.01572562       0.79079265       0.24633986
H       -0.97773049      -0.22210323      -1.71837058
H       -2.52271936      -0.35629727      -0.83859755
H       -0.06561880      -1.89709612       1.62756694
H        2.05024036      -1.41979654       0.42879741
H        2.36593717       0.84861868      -0.45176684
H        0.46232424       2.35052339       0.42930345
H        0.08083332       1.83001830      -1.19979475
H       -0.64175123      -0.18228392       1.43477023
15
Frame=4 idx=008217 GeodesicLength=0.3564135923992705 rxn_smarts="[C:1]1([H:8])([H:9])[O:2][C@@:3]2([H:10])[C:4]([H:11])=[C:5]([H:12])[C:6]([H:13])([H:14])[C@@:7]12[H:15]>>[C:1]1([H:8])([H:9])[O:2][C:3]([H:10])([H:15])[C-:4]([H:11])[C@@:5]2([H:12])[C:6]([H:13])([H:14])[C+:7]12"
C       -1.44983397      -0.31278474      -0.71391995
O       -1.00595207      -1.54288856      -0.16389605
C       -0.11990902      -1.12788838       0.84661295
C        1.22643650      -0.72512558       0.34383606
C        1.39460101       0.50418630      -0.12000172
C        0.24103345       1.46679839      -0.19844261
C       -0.98893801       0.78109731       0.25175983
H       -1.03855250      -0.19901784      -1.72804228
H       -2.54016074      -0.34882293      -0.77932047
H       -0.06582638      -1.92377606       1.59301678
H        2.06167406      -1.40727310       0.45852930
H        2.38317556       0.86722313      -0.38353918
H        0.46064148       2.36967584       0.37845897
H        0.09736560       1.79783516      -1.23781895
H       -0.65575498      -0.19923893       1.45276733
15
Frame=5 idx=008217 GeodesicLength=0.44502012868145824 rxn_smarts="[C:1]1([H:8])([H:9])[O:2][C@@:3]2([H:10])[C:4]([H:11])=[C:5]([H:12])[C:6]([H:13])([H:14])[C@@:7]12[H:15]>>[C:1]1([H:8])([H:9])[O:2][C:3]([H:10])([H:15])[C-:4]([H:11])[C@@:5]2([H:12])[C:6]([H:13])([H:14])[C+:7]12"
C       -1.46284891      -0.30385773      -0.70435092
O       -0.98845978      -1.54260226      -0.20048469
C       -0.11911208      -1.13689618       0.82884512
C        1.23131057      -0.72470404       0.34610572
C        1.40216675       0.51098857      -0.09871552
C        0.24803656       1.46679444      -0.22580014
C       -0.96136251       0.77157730       0.25648476
H       -1.10270932      -0.17372443      -1.73509467
H       -2.55528624      -0.34275528      -0.71730149
H       -0.06623697      -1.95030714       1.55664085
H        2.07239464      -1.39468384       0.48871408
H        2.39795946       0.88674490      -0.31301619
H        0.45853716       2.38775735       0.32512172
H        0.11598808       1.76251951      -1.27644918
H       -0.67037743      -0.21685116       1.46930055
15
Frame=6 idx=008217 GeodesicLength=0.5334590620731039 rxn_smarts="[C:1]1([H:8])([H:9])[O:2][C@@:3]2([H:10])[C:4]([H:11])=[C:5]([H:12])[C:6]([H:13])([H:14])[C@@:7]12[H:15]>>[C:1]1([H:8])([H:9])[O:2][C:3]([H:10])([H:15])[C-:4]([H:11])[C@@:5]2([H:12])[C:6]([H:13])([H:14])[C+:7]12"
C       -1.47586741      -0.29427337      -0.69394509
O       -0.97014471      -1.53996002      -0.23892202
C       -0.11795899      -1.14573915       0.80996481
C        1.23675421      -0.72392032       0.34873235
C        1.40969636       0.51855917      -0.07553810
C        0.25559135       1.46557229      -0.25420420
C       -0.93314659       0.76228820       0.26046615
H       -1.17002119      -0.14619708      -1.73898338
H       -2.56773242      -0.33825030      -0.65290598
H       -0.06681316      -1.97658930       1.51830788
H        2.08231096      -1.38204703       0.51919879
H        2.40997216       0.90728089      -0.24031195
H        0.45614217       2.40442917       0.26927841
H        0.13674579       1.72377457      -1.31543120
H       -0.68552854      -0.23492771       1.48429352
15
Frame=7 idx=008217 GeodesicLength=0.6217893367130795 rxn_smarts="[C:1]1([H:8])([H:9])[O:2][C@@:3]2([H:10])[C:4]([H:11])=[C:5]([H:12])[C:6]([H:13])([H:14])[C@@:7]12[H:15]>>[C:1]1([H:8])([H:9])[O:2][C:3]([H:10])([H:15])[C-:4]([H:11])[C@@:5]2([H:12])[C:6]([H:13])([H:14])[C+:7]12"
C       -1.48885387      -0.28403188      -0.68268263
O       -0.95122060      -1.53471091      -0.27905937
C       -0.11643496      -1.15435303       0.78989052
C        1.24273967      -0.72273604       0.35166855
C        1.41696070       0.52681893      -0.05078641
C        0.26372165       1.46298045      -0.28359702
C       -0.90448344       0.75329938       0.26367489
H       -1.24019444      -0.11646592      -1.73916378
H       -2.57724947      -0.33540074      -0.58660939
H       -0.06749813      -2.00255218       1.47786994
H        2.09141908      -1.36930668       0.55008133
H        2.41892407       0.92892340      -0.16553815
H        0.45370541       2.41936418       0.21098186
H        0.15952359       1.68143222      -1.35443597
H       -0.70105924      -0.25326116       1.49770564
15
Frame=8 idx=008217 GeodesicLength=0.7099569701977093 rxn_smarts="[C:1]1([H:8])([H:9])[O:2][C@@:3]2([H:10])[C:4]([H:11])=[C:5]([H:12])[C:6]([H:13])([H:14])[C@@:7]12[H:15]>>[C:1]1([H:8])([H:9])[O:2][C:3]([H:10])([H:15])[C-:4]([H:11])[C@@:5]2([H:12])[C:6]([H:13])([H:14])[C+:7]12"
C       -1.50155759      -0.27320938      -0.67068446
O       -0.93190155      -1.52662153      -0.32049104
C       -0.11458755      -1.16257844       0.76877287
C        1.24913842      -0.72099706       0.35518472
C        1.42362385       0.53569468      -0.02476774
C        0.27238947       1.45896365      -0.31361789
C       -0.87567481       0.74465130       0.26610452
H       -1.31221263      -0.08481902      -1.73519745
H       -2.58345173      -0.33433807      -0.51950443
H       -0.06826688      -2.02796417       1.43547805
H        2.09956908      -1.35647437       0.58120232
H        2.42437838       0.95136891      -0.09027907
H        0.45143657       2.43212471       0.15093135
H        0.18409044       1.63577657      -1.39276423
H       -0.71697348      -0.27157777       1.50963248
15
Frame=9 idx=008217 GeodesicLength=0.798106598631469 rxn_smarts="[C:1]1([H:8])([H:9])[O:2][C@@:3]2([H:10])[C:4]([H:11])=[C:5]([H:12])[C:6]([H:13])([H:14])[C@@:7]12[H:15]>>[C:1]1([H:8])([H:9])[O:2][C:3]([H:10])([H:15])[C-:4]([H:11])[C@@:5]2([H:12])[C:6]([H:13])([H:14])[C+:7]12"
C       -1.51391449      -0.26188122      -0.65801632
O       -0.91257722      -1.51569262      -0.36283785
C       -0.11240567      -1.17037100       0.74658731
C        1.25588178      -0.71877121       0.35907926
C        1.42951818       0.54492342       0.00161151
C        0.28156598       1.45347293      -0.34413785
C       -0.84694453       0.73637642       0.26776186
H       -1.38535137      -0.05156181      -1.72676869
H       -2.58632420      -0.33494278      -0.45234104
H       -0.06899046      -2.05269176       1.39114770
H        2.10676050      -1.34343467       0.61285932
H        2.42618571       0.97464257      -0.01465236
H        0.44973851       2.44243553       0.08951487
H        0.20987562       1.58712358      -1.42997225
H       -0.73301834      -0.28962737       1.52016451
15
Frame=10 idx=008217 GeodesicLength=0.8862371498192353 rxn_smarts="[C:1]1([H:8])([H:9])[O:2][C@@:3]2([H:10])[C:4]([H:11])=[C:5]([H:12])[C:6]([H:13])([H:14])[C@@:7]12[H:15]>>[C:1]1([H:8])([H:9])[O:2][C:3]([H:10])([H:15])[C-:4]([H:11])[C@@:5]2([H:12])[C:6]([H:13])([H:14])[C+:7]12"
C       -1.52565290      -0.25021105      -0.64489730
O       -0.89359389      -1.50203105      -0.40545610
C       -0.10996051      -1.17761598       0.72360096
C        1.26279069      -0.71603254       0.36348985
C        1.43444619       0.55430116       0.02763613
C        0.29114258       1.44663516      -0.37468509
C       -0.81860211       0.72845804       0.26869696
H       -1.45816253      -0.01732722      -1.71385236
H       -2.58580996      -0.33712388      -0.38643089
H       -0.06959453      -2.07648132       1.34527471
H        2.11283835      -1.33016841       0.64507419
H        2.42423218       0.99829708       0.05945205
H        0.44884334       2.45004892       0.02786931
H        0.23628356       1.53639218      -1.46531897
H       -0.74920045      -0.30714111       1.52954655
15
Frame=11 idx=008217 GeodesicLength=0.9744993280261955 rxn_smarts="[C:1]1([H:8])([H:9])[O:2][C@@:3]2([H:10])[C:4]([H:11])=[C:5]([H:12])[C:6]([H:13])([H:14])[C@@:7]12[H:15]>>[C:1]1([H:8])([H:9])[O:2][C:3]([H:10])([H:15])[C-:4]([H:11])[C@@:5]2([H:12])[C:6]([H:13])([H:14])[C+:7]12"
C       -1.53662616      -0.23832787      -0.63146105
O       -0.87531437      -1.48590344      -0.44783478
C       -0.10723778      -1.18426532       0.69990243
C        1.26973431      -0.71293056       0.36811661
C        1.43839360       0.56351464       0.05236683
C        0.30101734       1.43852671      -0.40507584
C       -0.79076168       0.72083877       0.26894840
H       -1.52968656       0.01738540      -1.69658531
H       -2.58205693      -0.34059701      -0.32247419
H       -0.06991562      -2.09909723       1.29813550
H        2.11764847      -1.31662929       0.67794702
H        2.41846123       1.02219522       0.13191021
H        0.44900523       2.45489181      -0.03337885
H        0.26259053       1.48428959      -1.49850766
H       -0.76525159      -0.32389143       1.53799068
15
Frame=12 idx=008217 GeodesicLength=1.0628159626851836 rxn_smarts="[C:1]1([H:8])([H:9])[O:2][C@@:3]2([H:10])[C:4]([H:11])=[C:5]([H:12])[C:6]([H:13])([H:14])[C@@:7]12[H:15]>>[C:1]1([H:8])([H:9])[O:2][C:3]([H:10])([H:15])[C-:4]([H:11])[C@@:5]2([H:12])[C:6]([H:13])([H:14])[C+:7]12"
C       -1.54660500      -0.22645090      -0.61798539
O       -0.85797172      -1.46773777      -0.48931608
C       -0.10434683      -1.19028182       0.67590590
C        1.27652858      -0.70949593       0.37315291
C        1.44134508       0.57246111       0.07547180
C        0.31102231       1.42949548      -0.43475618
C       -0.76369722       0.71345082       0.26862433
H       -1.59853322       0.05181308      -1.67547653
H       -2.57535719      -0.34521790      -0.26166015
H       -0.06991303      -2.12037597       1.25037613
H        2.12105166      -1.30289762       0.71140385
H        2.40934053       1.04570947       0.20033519
H        0.45018869       2.45713800      -0.09290780
H        0.28833598       1.43210412      -1.52899388
H       -0.78138864      -0.33971416       1.54582590
15
Frame=13 idx=008217 GeodesicLength=1.1512529472000836 rxn_smarts="[C:1]1([H:8])([H:9])[O:2][C@@:3]2([H:10])[C:4]([H:11])=[C:5]([H:12])[C:6]([H:13])([H:14])[C@@:7]12[H:15]>>[C:1]1([H:8])([H:9])[O:2][C:3]([H:10])([H:15])[C-:4]([H:11])[C@@:5]2([H:12])[C:6]([H:13])([H:14])[C+:7]12"
C       -1.55557618      -0.21470027      -0.60456919
O       -0.84179800      -1.44800468      -0.52954219
C       -0.10127391      -1.19569891       0.65172367
C        1.28312658      -0.70592201       0.37827313
C        1.44349615       0.58096506       0.09646578
C        0.32107265       1.41971959      -0.46366223
C       -0.73741556       0.70623801       0.26775999
H       -1.66423628       0.08550067      -1.65099260
H       -2.56613195      -0.35066800      -0.20422847
H       -0.06946230      -2.14022745       1.20234219
H        2.12298881      -1.28906996       0.74528196
H        2.39714184       1.06880687       0.26511106
H        0.45242611       2.45706345      -0.15036694
H        0.31310083       1.38046072      -1.55685994
H       -0.79745878      -0.35446310       1.55326378
15
Frame=14 idx=008217 GeodesicLength=1.239892165215936 rxn_smarts="[C:1]1([H:8])([H:9])[O:2][C@@:3]2([H:10])[C:4]([H:11])=[C:5]([H:12])[C:6]([H:13])([H:14])[C@@:7]12[H:15]>>[C:1]1([H:8])([H:9])[O:2][C:3]([H:10])([H:15])[C-:4]([H:11])[C@@:5]2([H:12])[C:6]([H:13])([H:14])[C+:7]12"
C       -1.56342391      -0.20315521      -0.59128285
O       -0.82681335      -1.42701501      -0.56829248
C       -0.09802264      -1.20049355       0.62747299
C        1.28940347      -0.70228535       0.38329598
C        1.44491305       0.58893215       0.11524657
C        0.33106807       1.40931649      -0.49167433
C       -0.71188119       0.69908969       0.26643780
H       -1.72634911       0.11814108      -1.62360206
H       -2.55460175      -0.35672900      -0.15028367
H       -0.06850388      -2.15851120       1.15432669
H        2.12326830      -1.27515324       0.77937209
H        2.38206175       1.09126191       0.32608475
H        0.45558129       2.45484761      -0.20541538
H        0.33671178       1.32983246      -1.58219543
H       -0.81341188      -0.36807884       1.56050933
15
Frame=15 idx=008217 GeodesicLength=1.3286062454365377 rxn_smarts="[C:1]1([H:8])([H:9])[O:2][C@@:3]2([H:10])[C:4]([H:11])=[C:5]([H:12])[C:6]([H:13])([H:14])[C@@:7]12[H:15]>>[C:1]1([H:8])([H:9])[O:2][C:3]([H:10])([H:15])[C-:4]([H:11])[C@@:5]2([H:12])[C:6]([H:13])([H:14])[C+:7]12"
C       -1.57045137      -0.19188237      -0.57817913
O       -0.81315674      -1.40526713      -0.60549792
C       -0.09459917      -1.20492952       0.60323302
C        1.29557579      -0.69878993       0.38813279
C        1.44599899       0.59644974       0.13188255
C        0.34104383       1.39863882      -0.51888654
C       -0.68714521       0.69205722       0.26465575
H       -1.78516176       0.14965489      -1.59374353
H       -2.54150988      -0.36333829      -0.09971706
H       -0.06702835      -2.17565497       1.10655466
H        2.12215621      -1.26132323       0.81385980
H        2.36474600       1.11319590       0.38352066
H        0.45961801       2.45118494      -0.25821096
H        0.35925254       1.28066862      -1.60531359
H       -0.82933888      -0.38066471       1.56770950
15
Frame=16 idx=008217 GeodesicLength=1.4176399942279625 rxn_smarts="[C:1]1([H:8])([H:9])[O:2][C@@:3]2([H:10])[C:4]([H:11])=[C:5]([H:12])[C:6]([H:13])([H:14])[C@@:7]12[H:15]>>[C:1]1([H:8])([H:9])[O:2][C:3]([H:10])([H:15])[C-:4]([H:11])[C@@:5]2([H:12])[C:6]([H:13])([H:14])[C+:7]12"
C       -1.57607572      -0.18097110      -0.56535078
O       -0.80043066      -1.38275359      -0.64103788
C       -0.09108788      -1.20858649       0.57920914
C        1.30107835      -0.69515905       0.39295720
C        1.44626020       0.60341685       0.14682728
C        0.35073697       1.38750331      -0.54473765
C       -0.66312726       0.68490781       0.26266282
H       -1.83966829       0.17945350      -1.56194193
H       -2.52642962      -0.37030322      -0.05288470
H       -0.06505820      -2.19087960       1.05924645
H        2.11902372      -1.24738462       0.84789227
H        2.34546767       1.13384699       0.43568083
H        0.46408506       2.44567560      -0.30767974
H        0.38060651       1.23311616      -1.62587872
H       -0.84538083      -0.39188256       1.57503543
