11
Frame=0 idx=003529 GeodesicLength=0.0 rxn_smarts="[O:1]([C@@:2]1([H:7])[C:3]([H:8])([H:9])[C@:4]1([O:5][H:11])[H:10])[H:6]>>[O:1]([C@@:2]([C:3]([H:8])([H:9])[H:10])([C:4][O:5][H:11])[H:7])[H:6]"
O        0.64809548       1.32139474       0.60157966
C        0.38417031       0.44236629      -0.46348385
C        0.36200919      -1.01867190      -0.16231624
C       -1.10160681       0.13348762      -0.58312316
O       -1.77192333       0.43060008       0.54354515
H        1.50497915       1.11714037       0.97694604
H        0.87555948       0.74259093      -1.38578298
H        0.36702297      -1.29811918       0.88472897
H        0.84144521      -1.69614645      -0.85931326
H       -0.91349901      -1.12243504      -0.68483409
H       -1.19625267       0.94779257       1.13205377
11
Frame=1 idx=003529 GeodesicLength=0.046297897617339594 rxn_smarts="[O:1]([C@@:2]1([H:7])[C:3]([H:8])([H:9])[C@:4]1([O:5][H:11])[H:10])[H:6]>>[O:1]([C@@:2]([C:3]([H:8])([H:9])[H:10])([C:4][O:5][H:11])[H:7])[H:6]"
O        0.65280812       1.32029808       0.60038889
C        0.38040064       0.44191245      -0.46332181
C        0.36093558      -1.02040733      -0.16360037
C       -1.10388072       0.13003641      -0.57343164
O       -1.77440164       0.44261642       0.54801347
H        1.50279679       1.10151980       0.98330713
H        0.86130523       0.74360066      -1.39073459
H        0.36835304      -1.30052836       0.88353706
H        0.86167553      -1.68880900      -0.85438367
H       -0.91324417      -1.13633686      -0.69932064
H       -1.19674841       0.96609773       1.12954616
11
Frame=2 idx=003529 GeodesicLength=0.09258460250761266 rxn_smarts="[O:1]([C@@:2]1([H:7])[C:3]([H:8])([H:9])[C@:4]1([O:5][H:11])[H:10])[H:6]>>[O:1]([C@@:2]([C:3]([H:8])([H:9])[H:10])([C:4][O:5][H:11])[H:7])[H:6]"
O        0.65760851       1.31904834       0.59919785
C        0.37653623       0.44136808      -0.46309382
C        0.35986211      -1.02228343      -0.16496453
C       -1.10620806       0.12633156      -0.56332945
O       -1.77682535       0.45493145       0.55257025
H        1.50042112       1.08593489       0.98957995
H        0.84670817       0.74456119      -1.39558355
H        0.36967030      -1.30310642       0.88226056
H        0.88189470      -1.68123114      -0.84908814
H       -0.91260526      -1.15019161      -0.71444575
H       -1.19706245       0.98463708       1.12689665
11
Frame=3 idx=003529 GeodesicLength=0.13883929419874208 rxn_smarts="[O:1]([C@@:2]1([H:7])[C:3]([H:8])([H:9])[C@:4]1([O:5][H:11])[H:10])[H:6]>>[O:1]([C@@:2]([C:3]([H:8])([H:9])[H:10])([C:4][O:5][H:11])[H:7])[H:6]"
O        0.66248658       1.31764727       0.59800490
C        0.37257641       0.44072984      -0.46279498
C        0.35879802      -1.02430333      -0.16640789
C       -1.10858028       0.12236166      -0.55280243
O       -1.77919833       0.46755840       0.55718777
H        1.49785533       1.07041060       0.99575794
H        0.83177175       0.74546553      -1.40031522
H        0.37099269      -1.30585343       0.88090113
H        0.90205166      -1.67342123      -0.84343302
H       -0.91156510      -1.16397187      -0.73020161
H       -1.19718874       1.00337657       1.12410340
11
Frame=4 idx=003529 GeodesicLength=0.18505969991594645 rxn_smarts="[O:1]([C@@:2]1([H:7])[C:3]([H:8])([H:9])[C@:4]1([O:5][H:11])[H:10])[H:6]>>[O:1]([C@@:2]([C:3]([H:8])([H:9])[H:10])([C:4][O:5][H:11])[H:7])[H:6]"
O        0.66743288       1.31609804       0.59680947
C        0.36852200       0.43999555      -0.46242017
C        0.35775195      -1.02646980      -0.16792758
C       -1.11098754       0.11812052      -0.54183816
O       -1.78152579       0.48050726       0.56183391
H        1.49510659       1.05497444       1.00183314
H        0.81650271       0.74630861      -1.40491459
H        0.37233747      -1.30876796       0.87946317
H        0.92209383      -1.66538961      -0.83742932
H       -0.91011176      -1.17765426      -0.74657584
H       -1.19712235       1.02227722       1.12116597
11
Frame=5 idx=003529 GeodesicLength=0.23130630693426402 rxn_smarts="[O:1]([C@@:2]1([H:7])[C:3]([H:8])([H:9])[C@:4]1([O:5][H:11])[H:10])[H:6]>>[O:1]([C@@:2]([C:3]([H:8])([H:9])[H:10])([C:4][O:5][H:11])[H:7])[H:6]"
O        0.67244081       1.31441320       0.59561452
C        0.36437631       0.43916746      -0.46196553
C        0.35672935      -1.02879310      -0.16951615
C       -1.11341961       0.11361396      -0.53042259
O       -1.78381190       0.49378186       0.56647207
H        1.49218662       1.03966288       1.00779846
H        0.80091375       0.74709447      -1.40937441
H        0.37371534      -1.31185558       0.87796218
H        0.94196759      -1.65715134      -0.83109820
H       -0.90823934      -1.19123289      -0.76355833
H       -1.19685890       1.04129908       1.11808799
11
Frame=6 idx=003529 GeodesicLength=0.2773737947605718 rxn_smarts="[O:1]([C@@:2]1([H:7])[C:3]([H:8])([H:9])[C@:4]1([O:5][H:11])[H:10])[H:6]>>[O:1]([C@@:2]([C:3]([H:8])([H:9])[H:10])([C:4][O:5][H:11])[H:7])[H:6]"
O        0.67747918       1.31257504       0.59441714
C        0.36013250       0.43823118      -0.46141873
C        0.35574065      -1.03123665      -0.17117443
C       -1.11586822       0.10879648      -0.51854678
O       -1.78607209       0.50745481       0.57103389
H        1.48909794       1.02447038       1.01364903
H        0.78500218       0.74777431      -1.41366221
H        0.37516944      -1.31508584       0.87637483
H        0.96168772      -1.64873204      -0.82448661
H       -0.90596062      -1.20463072      -0.78107642
H       -1.19640868       1.06038305       1.11489028
11
Frame=7 idx=003529 GeodesicLength=0.32348084160033896 rxn_smarts="[O:1]([C@@:2]1([H:7])[C:3]([H:8])([H:9])[C@:4]1([O:5][H:11])[H:10])[H:6]>>[O:1]([C@@:2]([C:3]([H:8])([H:9])[H:10])([C:4][O:5][H:11])[H:7])[H:6]"
O        0.68257109       1.31060171       0.59321852
C        0.35579501       0.43719620      -0.46078426
C        0.35479470      -1.03383920      -0.17290092
C       -1.11832100       0.10369356      -0.50618266
O       -1.78829599       0.52147624       0.57551531
H        1.48584741       1.00941240       1.01940094
H        0.76875355       0.74839540      -1.41779185
H        0.37670130      -1.31849288       0.87472488
H        0.98117719      -1.64011307      -0.81757743
H       -0.90325755      -1.21788818      -0.79915376
H       -1.19576571       1.07955782       1.11153122
11
Frame=8 idx=003529 GeodesicLength=0.3695045662136515 rxn_smarts="[O:1]([C@@:2]1([H:7])[C:3]([H:8])([H:9])[C@:4]1([O:5][H:11])[H:10])[H:6]>>[O:1]([C@@:2]([C:3]([H:8])([H:9])[H:10])([C:4][O:5][H:11])[H:7])[H:6]"
O        0.68771350       1.30847776       0.59201562
C        0.35135884       0.43605052      -0.46005532
C        0.35390960      -1.03660127      -0.17470703
C       -1.12076786       0.09827367      -0.49329922
O       -1.79049132       0.53585543       0.57989297
H        1.48241695       0.99445914       1.02508200
H        0.75213187       0.74895358      -1.42175062
H        0.37835721      -1.32208112       0.87298885
H        1.00040883      -1.63130199      -0.81039411
H       -0.90009526      -1.23094885      -0.81773462
H       -1.19494236       1.09886312       1.10796149
11
Frame=9 idx=003529 GeodesicLength=0.4155189199803929 rxn_smarts="[O:1]([C@@:2]1([H:7])[C:3]([H:8])([H:9])[C@:4]1([O:5][H:11])[H:10])[H:6]>>[O:1]([C@@:2]([C:3]([H:8])([H:9])[H:10])([C:4][O:5][H:11])[H:7])[H:6]"
O        0.69288499       1.30620984       0.59081806
C        0.34682582       0.43479879      -0.45922176
C        0.35308389      -1.03950550      -0.17657258
C       -1.12319993       0.09255252      -0.47989336
O       -1.79265033       0.55062680       0.58408286
H        1.47882165       0.97963703       1.03067013
H        0.73515557       0.74943370      -1.42551983
H        0.38015083      -1.32583363       0.87119060
H        1.01939535      -1.62232146      -0.80298929
H       -0.89653577      -1.24381134      -0.83678151
H       -1.19393205       1.11821325       1.10421667
11
Frame=10 idx=003529 GeodesicLength=0.4614809391427882 rxn_smarts="[O:1]([C@@:2]1([H:7])[C:3]([H:8])([H:9])[C@:4]1([O:5][H:11])[H:10])[H:6]>>[O:1]([C@@:2]([C:3]([H:8])([H:9])[H:10])([C:4][O:5][H:11])[H:7])[H:6]"
O        0.69809778       1.30379449       0.58962376
C        0.34220070       0.43343204      -0.45828122
C        0.35233568      -1.04256732      -0.17851045
C       -1.12559517       0.08651084      -0.46593239
O       -1.79478088       0.56577288       0.58806636
H        1.47506252       0.96493868       1.03620374
H        0.71779765       0.74984658      -1.42909269
H        0.38211943      -1.32977186       0.86931350
H        1.03807565      -1.61315900      -0.79538159
H       -0.89255611      -1.25644925      -0.85624683
H       -1.19275726       1.13765191       1.10023782
11
Frame=11 idx=003529 GeodesicLength=0.5074248904430825 rxn_smarts="[O:1]([C@@:2]1([H:7])[C:3]([H:8])([H:9])[C@:4]1([O:5][H:11])[H:10])[H:6]>>[O:1]([C@@:2]([C:3]([H:8])([H:9])[H:10])([C:4][O:5][H:11])[H:7])[H:6]"
O        0.70335016       1.30122897       0.58843520
C        0.33748107       0.43195028      -0.45722677
C        0.35167280      -1.04578295      -0.18052404
C       -1.12794670       0.08014709      -0.45138385
O       -1.79687886       0.58130699       0.59180055
H        1.47111965       0.95034794       1.04170897
H        0.70003150       0.75019627      -1.43245972
H        0.38429943      -1.33389598       0.86735073
H        1.05645279      -1.60383751      -0.78760546
H       -0.88816725      -1.26885294      -0.87609250
H       -1.19141459       1.15719183       1.09599688
11
Frame=12 idx=003529 GeodesicLength=0.5533396623568279 rxn_smarts="[O:1]([C@@:2]1([H:7])[C:3]([H:8])([H:9])[C@:4]1([O:5][H:11])[H:10])[H:6]>>[O:1]([C@@:2]([C:3]([H:8])([H:9])[H:10])([C:4][O:5][H:11])[H:7])[H:6]"
O        0.70864692       1.29850703       0.58726141
C        0.33267081       0.43034374      -0.45605037
C        0.35111329      -1.04916002      -0.18261775
C       -1.13023048       0.07345025      -0.43620065
O       -1.79894586       0.59723087       0.59523829
H        1.46699168       0.93585043       1.04722152
H        0.68182819       0.75047834      -1.43561278
H        0.38673841      -1.33822823       0.86529325
H        1.07449651      -1.59433856      -0.77970728
H       -0.88337862      -1.28100112      -0.89626208
H       -1.18993086       1.17686727       1.09143644
11
Frame=13 idx=003529 GeodesicLength=0.5992313650280177 rxn_smarts="[O:1]([C@@:2]1([H:7])[C:3]([H:8])([H:9])[C@:4]1([O:5][H:11])[H:10])[H:6]>>[O:1]([C@@:2]([C:3]([H:8])([H:9])[H:10])([C:4][O:5][H:11])[H:7])[H:6]"
O        0.71396726       1.29563223       0.58610552
C        0.32777933       0.42862387      -0.45474110
C        0.35064502      -1.05268176      -0.18477646
C       -1.13242346       0.06645022      -0.42038924
O       -1.80096939       0.61353235       0.59829951
H        1.46269177       0.92148615       1.05269482
H        0.66322795       0.75070604      -1.43851183
H        0.38943435      -1.34274328       0.86315403
H        1.09218470      -1.58469901      -0.77172027
H       -0.87824246      -1.29288225      -0.91669944
H       -1.18829508       1.19657544       1.08658446
11
Frame=14 idx=003529 GeodesicLength=0.645070926073597 rxn_smarts="[O:1]([C@@:2]1([H:7])[C:3]([H:8])([H:9])[C@:4]1([O:5][H:11])[H:10])[H:6]>>[O:1]([C@@:2]([C:3]([H:8])([H:9])[H:10])([C:4][O:5][H:11])[H:7])[H:6]"
O        0.71932038       1.29260115       0.58498323
C        0.32281184       0.42677859      -0.45329393
C        0.35029421      -1.05635583      -0.18701242
C       -1.13450282       0.05913922      -0.40390762
O       -1.80296825       0.63022448       0.60092380
H        1.45822026       0.90723941       1.05819332
H        0.64419324       0.75086996      -1.44115436
H        0.39246261      -1.34746394       0.86091504
H        1.10947425      -1.57491401      -0.76370200
H       -0.87276515      -1.30447644      -0.93733257
H       -1.18654057       1.21635742       1.08138751
11
Frame=15 idx=003529 GeodesicLength=0.690915331564493 rxn_smarts="[O:1]([C@@:2]1([H:7])[C:3]([H:8])([H:9])[C@:4]1([O:5][H:11])[H:10])[H:6]>>[O:1]([C@@:2]([C:3]([H:8])([H:9])[H:10])([C:4][O:5][H:11])[H:7])[H:6]"
O        0.72469147       1.28942914       0.58389749
C        0.31778105       0.42482060      -0.45170575
C        0.35004411      -1.06016630      -0.18931619
C       -1.13644815       0.05156348      -0.38675497
O       -1.80493445       0.64729676       0.60303481
H        1.45359086       0.89315457       1.06369033
H        0.62476478       0.75096883      -1.44352158
H        0.39581996      -1.35236287       0.85858622
H        1.12633972      -1.56502020      -0.75567796
H       -0.86698986      -1.31578999      -0.95812535
H       -1.18465950       1.23610599       1.07589295
11
Frame=16 idx=003529 GeodesicLength=0.7367423008476233 rxn_smarts="[O:1]([C@@:2]1([H:7])[C:3]([H:8])([H:9])[C@:4]1([O:5][H:11])[H:10])[H:6]>>[O:1]([C@@:2]([C:3]([H:8])([H:9])[H:10])([C:4][O:5][H:11])[H:7])[H:6]"
O        0.73008678       1.28611327       0.58285593
C        0.31269546       0.42274545      -0.44996624
C        0.34990694      -1.06411328      -0.19168849
C       -1.13822907       0.04372378      -0.36888332
O       -1.80686695       0.66473947       0.60456981
H        1.44880055       0.87922128       1.06921803
H        0.60491988       0.75100551      -1.44559502
H        0.39954885      -1.35745705       0.85615768
H        1.14275943      -1.55501566      -0.74770220
H       -0.86094442      -1.32680541      -0.97901872
H       -1.18267745       1.25584263       1.07005254
