12
Frame=0 idx=011028 GeodesicLength=0.0 rxn_smarts="[C:1](#[C:2][C@:3]1([H:9])[N:4]([H:10])[C@@:5]1([C:6]#[C:7][H:12])[H:11])[H:8]>>[C:1](/[C:2](=[C:3]1/[N:4]([H:10])[C@:5]1([C:6]#[C:7][H:12])[H:11])[H:9])[H:8]"
C        2.38148842       1.43794216       0.92473674
C        1.63227689       0.56563521       0.31694496
C        0.57311826      -0.28476920       0.16268174
N       -0.02707311      -1.40405284       0.63138224
C       -0.58118205      -0.76708741      -0.59765052
C       -1.80482608      -0.00751700      -0.53917913
C       -2.82491771       0.61545078      -0.48751928
H        3.42990359       1.49038847       0.63213798
H        1.93096945      -0.09903733      -0.62919621
H       -0.53075871      -1.34045177       1.51081133
H       -0.44950210      -1.38228083      -1.48093987
H       -3.72949684       1.17577972      -0.44420993
12
Frame=1 idx=011028 GeodesicLength=0.05555975879068365 rxn_smarts="[C:1](#[C:2][C@:3]1([H:9])[N:4]([H:10])[C@@:5]1([C:6]#[C:7][H:12])[H:11])[H:8]>>[C:1](/[C:2](=[C:3]1/[N:4]([H:10])[C@:5]1([C:6]#[C:7][H:12])[H:11])[H:9])[H:8]"
C        2.33411883       1.46705913       0.90366140
C        1.64113943       0.53768656       0.31700289
C        0.59308461      -0.32199763       0.14348636
N       -0.03446903      -1.42437757       0.62056135
C       -0.58221520      -0.77315995      -0.60282733
C       -1.78403830       0.01938404      -0.53285186
C       -2.79986772       0.64810234      -0.46790191
H        3.38862491       1.55837936       0.64529996
H        1.96360840      -0.16615862      -0.60916413
H       -0.52890518      -1.34228027       1.50350324
H       -0.47271032      -1.38845614      -1.48897633
H       -3.71837042       1.18581874      -0.43179363
12
Frame=2 idx=011028 GeodesicLength=0.11194478793222948 rxn_smarts="[C:1](#[C:2][C@:3]1([H:9])[N:4]([H:10])[C@@:5]1([C:6]#[C:7][H:12])[H:11])[H:8]>>[C:1](/[C:2](=[C:3]1/[N:4]([H:10])[C@:5]1([C:6]#[C:7][H:12])[H:11])[H:9])[H:8]"
C        2.28287654       1.49950380       0.87168484
C        1.64885834       0.51197980       0.31683669
C        0.61236592      -0.35733754       0.12417331
N       -0.04069716      -1.44293952       0.60987721
C       -0.58249854      -0.77844001      -0.60793789
C       -1.76267283       0.04485435      -0.52665274
C       -2.77446997       0.67873045      -0.44895041
H        3.34644460       1.61558487       0.66600151
H        1.99473877      -0.23074707      -0.58761534
H       -0.52542062      -1.34335663       1.49620057
H       -0.49442865      -1.39331853      -1.49667308
H       -3.70509639       1.19548602      -0.41694467
12
Frame=3 idx=011028 GeodesicLength=0.16974964371928183 rxn_smarts="[C:1](#[C:2][C@:3]1([H:9])[N:4]([H:10])[C@@:5]1([C:6]#[C:7][H:12])[H:11])[H:8]>>[C:1](/[C:2](=[C:3]1/[N:4]([H:10])[C@:5]1([C:6]#[C:7][H:12])[H:11])[H:9])[H:8]"
C        2.22991211       1.52328109       0.84397582
C        1.65674445       0.48133972       0.32618278
C        0.63118664      -0.39536589       0.10886500
N       -0.04877981      -1.46481691       0.59819433
C       -0.58082812      -0.78299609      -0.61320810
C       -1.73834743       0.07068187      -0.52088727
C       -2.74457205       0.71208379      -0.43201211
H        3.29142108       1.68755648       0.66443558
H        2.02614605      -0.29737362      -0.55692700
H       -0.52537366      -1.35075917       1.48697996
H       -0.51238005      -1.39420837      -1.50610325
H       -3.68512920       1.21057710      -0.39949575
12
Frame=4 idx=011028 GeodesicLength=0.22847316787964067 rxn_smarts="[C:1](#[C:2][C@:3]1([H:9])[N:4]([H:10])[C@@:5]1([C:6]#[C:7][H:12])[H:11])[H:8]>>[C:1](/[C:2](=[C:3]1/[N:4]([H:10])[C@:5]1([C:6]#[C:7][H:12])[H:11])[H:9])[H:8]"
C        2.17474733       1.54919106       0.80486406
C        1.66186157       0.45605086       0.33353201
C        0.64891180      -0.42995149       0.09301542
N       -0.05475912      -1.48415958       0.58688695
C       -0.57855263      -0.78746209      -0.61845491
C       -1.71495726       0.09293220      -0.51552112
C       -2.71603824       0.74096095      -0.41600237
H        3.23731662       1.74623451       0.67305047
H        2.05527098      -0.35984301      -0.52501018
H       -0.52297937      -1.35667445       1.47809395
H       -0.52821781      -1.39500888      -1.51496159
H       -3.66260388       1.22772990      -0.37949269
12
Frame=5 idx=011028 GeodesicLength=0.28805107026270493 rxn_smarts="[C:1](#[C:2][C@:3]1([H:9])[N:4]([H:10])[C@@:5]1([C:6]#[C:7][H:12])[H:11])[H:8]>>[C:1](/[C:2](=[C:3]1/[N:4]([H:10])[C@:5]1([C:6]#[C:7][H:12])[H:11])[H:9])[H:8]"
C        2.12062988       1.56984818       0.76568907
C        1.66484741       0.43311317       0.34311618
C        0.66569744      -0.46280531       0.07847854
N       -0.06020213      -1.50294295       0.57526681
C       -0.57527610      -0.79125359      -0.62383083
C       -1.69157891       0.11326459      -0.51056651
C       -2.68733920       0.76801609      -0.40104514
H        3.17999533       1.80350684       0.67528033
H        2.08281827      -0.41990626      -0.48842187
H       -0.52074252      -1.36394110       1.46854963
H       -0.54121353      -1.39389088      -1.52432354
H       -3.63763594       1.24699123      -0.35819268
12
Frame=6 idx=011028 GeodesicLength=0.34867145286753204 rxn_smarts="[C:1](#[C:2][C@:3]1([H:9])[N:4]([H:10])[C@@:5]1([C:6]#[C:7][H:12])[H:11])[H:8]>>[C:1](/[C:2](=[C:3]1/[N:4]([H:10])[C@:5]1([C:6]#[C:7][H:12])[H:11])[H:9])[H:8]"
C        2.06752017       1.58527325       0.72829182
C        1.66556568       0.41221893       0.35498593
C        0.68169701      -0.49431591       0.06516105
N       -0.06525626      -1.52151527       0.56317944
C       -0.57090154      -0.79477523      -0.62961283
C       -1.66821702       0.13145025      -0.50653503
C       -2.65790111       0.79389464      -0.38768042
H        3.11844929       1.86064057       0.66946918
H        2.10882992      -0.47783058      -0.44676717
H       -0.51905756      -1.37272965       1.45813154
H       -0.55116845      -1.39142609      -1.53442683
H       -3.60956013       1.26911509      -0.33419668
12
Frame=7 idx=011028 GeodesicLength=0.4098522463321718 rxn_smarts="[C:1](#[C:2][C@:3]1([H:9])[N:4]([H:10])[C@@:5]1([C:6]#[C:7][H:12])[H:11])[H:8]>>[C:1](/[C:2](=[C:3]1/[N:4]([H:10])[C@:5]1([C:6]#[C:7][H:12])[H:11])[H:9])[H:8]"
C        2.01591677       1.60099072       0.68080116
C        1.66372792       0.39677905       0.36185787
C        0.69685667      -0.52255088       0.05021858
N       -0.06816630      -1.53736373       0.55196063
C       -0.56681255      -0.79898728      -0.63529997
C       -1.64692547       0.14601615      -0.50304239
C       -2.63000224       0.81665919      -0.37498107
H        3.05961405       1.90768922       0.67783822
H        2.13200070      -0.53172757      -0.40574793
H       -0.51457933      -1.37858493       1.44870665
H       -0.56082284      -1.39094577      -1.54330463
H       -3.58080736       1.29202583      -0.30900711
12
Frame=8 idx=011028 GeodesicLength=0.471856376357098 rxn_smarts="[C:1](#[C:2][C@:3]1([H:9])[N:4]([H:10])[C@@:5]1([C:6]#[C:7][H:12])[H:11])[H:8]>>[C:1](/[C:2](=[C:3]1/[N:4]([H:10])[C@:5]1([C:6]#[C:7][H:12])[H:11])[H:9])[H:8]"
C        1.96592579       1.61137406       0.63806044
C        1.65990706       0.38257661       0.37103653
C        0.71150593      -0.54992623       0.03641599
N       -0.07066760      -1.55362399       0.54006594
C       -0.56179725      -0.80314219      -0.64136248
C       -1.62590440       0.15856868      -0.50007571
C       -2.60128104       0.83870390      -0.36301565
H        2.99643933       1.95631837       0.67638346
H        2.15323629      -0.58322553      -0.36045558
H       -0.51063273      -1.38660889       1.43829774
H       -0.56792444      -1.38932569      -1.55302605
H       -3.54880694       1.31831091      -0.28232463
12
Frame=9 idx=011028 GeodesicLength=0.5345179143137377 rxn_smarts="[C:1](#[C:2][C@:3]1([H:9])[N:4]([H:10])[C@@:5]1([C:6]#[C:7][H:12])[H:11])[H:8]>>[C:1](/[C:2](=[C:3]1/[N:4]([H:10])[C@:5]1([C:6]#[C:7][H:12])[H:11])[H:9])[H:8]"
C        1.91778599       1.61856253       0.59701222
C        1.65400923       0.37045712       0.38109824
C        0.72553850      -0.57571249       0.02328700
N       -0.07299286      -1.56923290       0.52768720
C       -0.55599567      -0.80706132      -0.64819786
C       -1.60539832       0.16946441      -0.49878745
C       -2.57242123       0.85968577      -0.35290384
H        2.93208871       2.00343192       0.66959825
H        2.17232277      -0.63275838      -0.31046145
H       -0.50754745      -1.39503339       1.42698372
H       -0.57248103      -1.38705995      -1.56360614
H       -3.51490866       1.34525668      -0.25170989
12
Frame=10 idx=011028 GeodesicLength=0.5979603779668202 rxn_smarts="[C:1](#[C:2][C@:3]1([H:9])[N:4]([H:10])[C@@:5]1([C:6]#[C:7][H:12])[H:11])[H:8]>>[C:1](/[C:2](=[C:3]1/[N:4]([H:10])[C@:5]1([C:6]#[C:7][H:12])[H:11])[H:9])[H:8]"
C        1.87199649       1.62465886       0.54887267
C        1.64628086       0.36103868       0.38889135
C        0.73916417      -0.59989236       0.00966788
N       -0.07425756      -1.58383036       0.51550920
C       -0.55002475      -0.81163223      -0.65532394
C       -1.58611628       0.17784541      -0.49847462
C       -2.54365984       0.87924745      -0.34347552
H        2.86586523       2.04712089       0.66947162
H        2.18871992      -0.68004561      -0.25839739
H       -0.50358850      -1.40269460       1.41573293
H       -0.57596983      -1.38589047      -1.57404684
H       -3.47840991       1.37407436      -0.21842733
12
Frame=11 idx=011028 GeodesicLength=0.6619111614898312 rxn_smarts="[C:1](#[C:2][C@:3]1([H:9])[N:4]([H:10])[C@@:5]1([C:6]#[C:7][H:12])[H:11])[H:8]>>[C:1](/[C:2](=[C:3]1/[N:4]([H:10])[C@:5]1([C:6]#[C:7][H:12])[H:11])[H:9])[H:8]"
C        1.82817348       1.62713970       0.50626705
C        1.63711614       0.35254716       0.39875684
C        0.75256700      -0.62290667      -0.00286421
N       -0.07519964      -1.59847997       0.50259574
C       -0.54331889      -0.81547921      -0.66265270
C       -1.56722883       0.18534980      -0.49809742
C       -2.51484034       0.89804629      -0.33372056
H        2.79868494       2.09018236       0.66033267
H        2.20227176      -0.72464019      -0.20347904
H       -0.50017374      -1.41202889       1.40359180
H       -0.57744324      -1.38292051      -1.58526166
H       -3.44060863       1.40319013      -0.18546853
12
Frame=12 idx=011028 GeodesicLength=0.7263684489774654 rxn_smarts="[C:1](#[C:2][C@:3]1([H:9])[N:4]([H:10])[C@@:5]1([C:6]#[C:7][H:12])[H:11])[H:8]>>[C:1](/[C:2](=[C:3]1/[N:4]([H:10])[C@:5]1([C:6]#[C:7][H:12])[H:11])[H:9])[H:8]"
C        1.78636424       1.62750738       0.46451824
C        1.62657122       0.34556246       0.40826470
C        0.76575445      -0.64466346      -0.01509874
N       -0.07557910      -1.61255363       0.48965966
C       -0.53617575      -0.81943843      -0.67021943
C       -1.54910343       0.19129545      -0.49849639
C       -2.48599112       0.91587508      -0.32478508
H        2.73025543       2.13146146       0.64985702
H        2.21269720      -0.76669057      -0.14743632
H       -0.49673554      -1.42131791       1.39123541
H       -0.57752131      -1.38013290      -1.59657982
H       -3.40053630       1.43309507      -0.15091925
12
Frame=13 idx=011028 GeodesicLength=0.7915124805806327 rxn_smarts="[C:1](#[C:2][C@:3]1([H:9])[N:4]([H:10])[C@@:5]1([C:6]#[C:7][H:12])[H:11])[H:8]>>[C:1](/[C:2](=[C:3]1/[N:4]([H:10])[C@:5]1([C:6]#[C:7][H:12])[H:11])[H:9])[H:8]"
C        1.74591573       1.62624607       0.42379053
C        1.61423453       0.34008257       0.41806368
C        0.77871949      -0.66526766      -0.02678378
N       -0.07545717      -1.62650319       0.47628679
C       -0.52843053      -0.82357295      -0.67827809
C       -1.53189698       0.19537819      -0.49982533
C       -2.45705441       0.93248789      -0.31622809
H        2.66030600       2.17138945       0.63627590
H        2.21994973      -0.80638273      -0.08887055
H       -0.49365094      -1.43140940       1.37820225
H       -0.57563160      -1.37720743      -1.60852796
H       -3.35700385       1.46475919      -0.11410535
12
Frame=14 idx=011028 GeodesicLength=0.8572950702328077 rxn_smarts="[C:1](#[C:2][C@:3]1([H:9])[N:4]([H:10])[C@@:5]1([C:6]#[C:7][H:12])[H:11])[H:8]>>[C:1](/[C:2](=[C:3]1/[N:4]([H:10])[C@:5]1([C:6]#[C:7][H:12])[H:11])[H:9])[H:8]"
C        1.70712585       1.62348348       0.38288639
C        1.60068787       0.33588602       0.42680013
C        0.79157709      -0.68490595      -0.03824885
N       -0.07466233      -1.64008114       0.46314084
C       -0.52037830      -0.82824593      -0.68642727
C       -1.51564099       0.19761183      -0.50183146
C       -2.42785513       0.94816106      -0.30819987
H        2.58784290       2.21005663       0.62352663
H        2.22389311      -0.84366429      -0.03057951
H       -0.49029708      -1.44138724       1.36523971
H       -0.57265989      -1.37512544      -1.62032800
H       -3.30963308       1.49821097      -0.07597875
12
Frame=15 idx=011028 GeodesicLength=0.9234226201541906 rxn_smarts="[C:1](#[C:2][C@:3]1([H:9])[N:4]([H:10])[C@@:5]1([C:6]#[C:7][H:12])[H:11])[H:8]>>[C:1](/[C:2](=[C:3]1/[N:4]([H:10])[C@:5]1([C:6]#[C:7][H:12])[H:11])[H:9])[H:8]"
C        1.67066452       1.61921974       0.34277062
C        1.58650636       0.33264495       0.43452128
C        0.80439294      -0.70348874      -0.04940062
N       -0.07336877      -1.65300691       0.45032776
C       -0.51207977      -0.83295410      -0.69448494
C       -1.50012154       0.19880869      -0.50416366
C       -2.39882443       0.96284003      -0.30032574
H        2.51354893       2.24718661       0.61121583
H        2.22463479      -0.87894396       0.02662940
H       -0.48669031      -1.45086881       1.35251046
H       -0.56892455      -1.37336692      -1.63181495
H       -3.25973819       1.53192942      -0.03778544
12
Frame=16 idx=011028 GeodesicLength=0.9898574221987653 rxn_smarts="[C:1](#[C:2][C@:3]1([H:9])[N:4]([H:10])[C@@:5]1([C:6]#[C:7][H:12])[H:11])[H:8]>>[C:1](/[C:2](=[C:3]1/[N:4]([H:10])[C@:5]1([C:6]#[C:7][H:12])[H:11])[H:9])[H:8]"
C        1.63589673       1.61367477       0.30546747
C        1.57190349       0.33004961       0.44187987
C        0.81718288      -0.72103631      -0.05991489
N       -0.07168747      -1.66537076       0.43784285
C       -0.50346207      -0.83749473      -0.70234118
C       -1.48518888       0.19927607      -0.50662742
C       -2.37013836       0.97647963      -0.29260367
H        2.43790233       2.28268823       0.59741470
H        2.22242471      -0.91230946       0.08193968
H       -0.48303283      -1.46007392       1.34000209
H       -0.56429057      -1.37155983      -1.64299491
H       -3.20750997       1.56567669      -0.00006460
