14
Frame=0 idx=006853 GeodesicLength=0.0 rxn_smarts="[C:1]([c:2]1[c:3]([H:11])[c:4]([N:5]([H:12])[H:13])[c:6]([H:14])[o:7]1)([H:8])([H:9])[H:10]>>[C:1]([C:2](=[C:3]([C:4]1=[C:6]([H:14])[N+:5]1([H:12])[H:13])[H:11])[O-:7])([H:8])([H:9])[H:10]"
C        2.50533852      -0.10001151      -0.04436640
C        1.06999836       0.35893206      -0.01096728
C        0.00820114      -0.61827841      -0.10759064
C       -1.18777362      -0.02461734       0.08703918
N       -2.56752960      -0.40002223       0.07922644
C       -1.62227190       1.21980554       0.41687023
O        0.79179701       1.54819902       0.13787117
H        3.15763695       0.74062699      -0.27134055
H        2.65074986      -0.89619458      -0.77619105
H        2.77675820      -0.49718272       0.93696303
H        0.15981430      -1.67880754      -0.24130076
H       -2.93590979      -0.82055968       0.91477812
H       -2.91729702      -0.78633695      -0.78377244
H       -1.88951241       1.95444741      -0.33721910
14
Frame=1 idx=006853 GeodesicLength=0.05121546940397163 rxn_smarts="[C:1]([c:2]1[c:3]([H:11])[c:4]([N:5]([H:12])[H:13])[c:6]([H:14])[o:7]1)([H:8])([H:9])[H:10]>>[C:1]([C:2](=[C:3]([C:4]1=[C:6]([H:14])[N+:5]1([H:12])[H:13])[H:11])[O-:7])([H:8])([H:9])[H:10]"
C        2.50734177      -0.09679339      -0.04203028
C        1.06872189       0.34824158      -0.00717571
C        0.01049825      -0.62718735      -0.12031700
C       -1.18987889      -0.03020921       0.04996152
N       -2.56997665      -0.40055848       0.07495326
C       -1.60654663       1.20925290       0.41385750
O        0.77785539       1.53415204       0.17108999
H        3.14640109       0.73473686      -0.33312074
H        2.65543244      -0.93128244      -0.72935502
H        2.80260045      -0.43372652       0.95468590
H        0.16037929      -1.69009767      -0.23647193
H       -2.91764398      -0.84460023       0.90727572
H       -2.95436930      -0.73886789      -0.79337518
H       -1.89081513       1.96693981      -0.30997803
14
Frame=2 idx=006853 GeodesicLength=0.10281209824138854 rxn_smarts="[C:1]([c:2]1[c:3]([H:11])[c:4]([N:5]([H:12])[H:13])[c:6]([H:14])[o:7]1)([H:8])([H:9])[H:10]>>[C:1]([C:2](=[C:3]([C:4]1=[C:6]([H:14])[N+:5]1([H:12])[H:13])[H:11])[O-:7])([H:8])([H:9])[H:10]"
C        2.50918449      -0.09364443      -0.03941046
C        1.06737770       0.33698692       0.00008162
C        0.01259664      -0.63592796      -0.13152521
C       -1.19175648      -0.03486324       0.01234700
N       -2.57127522      -0.40145588       0.06885869
C       -1.59102461       1.19813000       0.41120203
O        0.76392887       1.51950787       0.20285906
H        3.13208310       0.72416676      -0.39803813
H        2.65976043      -0.96598235      -0.67747073
H        2.83045823      -0.36576796       0.96882887
H        0.16011721      -1.70078969      -0.23238657
H       -2.89921130      -0.86974208       0.89590069
H       -2.99026188      -0.68962058      -0.80141885
H       -1.89197720       1.97900262      -0.27982800
14
Frame=3 idx=006853 GeodesicLength=0.15435279507234165 rxn_smarts="[C:1]([c:2]1[c:3]([H:11])[c:4]([N:5]([H:12])[H:13])[c:6]([H:14])[o:7]1)([H:8])([H:9])[H:10]>>[C:1]([C:2](=[C:3]([C:4]1=[C:6]([H:14])[N+:5]1([H:12])[H:13])[H:11])[O-:7])([H:8])([H:9])[H:10]"
C        2.51081081      -0.09055676      -0.03657784
C        1.06593884       0.32515265       0.01134780
C        0.01447298      -0.64437318      -0.14103284
C       -1.19326317      -0.03881157      -0.02362255
N       -2.57163522      -0.40267671       0.06174747
C       -1.57595343       1.18716727       0.40775178
O        0.75007658       1.50450452       0.23449047
H        3.11453326       0.70916064      -0.46356358
H        2.66404165      -0.99854616      -0.62222029
H        2.85994477      -0.29539043       0.97816739
H        0.15905050      -1.71063387      -0.23157723
H       -2.88181774      -0.89444371       0.88205929
H       -3.02381417      -0.64040016      -0.80708226
H       -1.89238567       1.98984746      -0.24988762
14
Frame=4 idx=006853 GeodesicLength=0.2054743448009356 rxn_smarts="[C:1]([c:2]1[c:3]([H:11])[c:4]([N:5]([H:12])[H:13])[c:6]([H:14])[o:7]1)([H:8])([H:9])[H:10]>>[C:1]([C:2](=[C:3]([C:4]1=[C:6]([H:14])[N+:5]1([H:12])[H:13])[H:11])[O-:7])([H:8])([H:9])[H:10]"
C        2.51206476      -0.08794132      -0.03155291
C        1.06433220       0.31320523       0.02312425
C        0.01608065      -0.65154843      -0.15428327
C       -1.19441710      -0.04195753      -0.05820821
N       -2.57079722      -0.40437986       0.05669821
C       -1.56095380       1.17693762       0.40267568
O        0.73621982       1.48994844       0.26160358
H        3.09604832       0.68917962      -0.52374840
H        2.66979626      -1.02844501      -0.56218660
H        2.88647656      -0.22458569       0.98551502
H        0.15734554      -1.71853871      -0.24225149
H       -2.86289280      -0.91825212       0.87012844
H       -3.05617357      -0.59288097      -0.80617652
H       -1.89312962       1.99925873      -0.22133779
14
Frame=5 idx=006853 GeodesicLength=0.2567762580308394 rxn_smarts="[C:1]([c:2]1[c:3]([H:11])[c:4]([N:5]([H:12])[H:13])[c:6]([H:14])[o:7]1)([H:8])([H:9])[H:10]>>[C:1]([C:2](=[C:3]([C:4]1=[C:6]([H:14])[N+:5]1([H:12])[H:13])[H:11])[O-:7])([H:8])([H:9])[H:10]"
C        2.51304989      -0.08523669      -0.02673976
C        1.06252100       0.29990970       0.04169516
C        0.01763352      -0.65888954      -0.16380710
C       -1.19515428      -0.04472180      -0.09042195
N       -2.56939715      -0.40605638       0.05002437
C       -1.54668183       1.16727760       0.39640842
O        0.72233104       1.47456193       0.29186147
H        3.07260453       0.66465531      -0.58592203
H        2.67510019      -1.05556206      -0.49931673
H        2.91666336      -0.15092988       0.98607840
H        0.15546423      -1.72598576      -0.25655680
H       -2.84619131      -0.94070251       0.85547498
H       -3.08541862      -0.54591957      -0.80421709
H       -1.89252457       2.00759966      -0.19456135
14
Frame=6 idx=006853 GeodesicLength=0.30786584281033363 rxn_smarts="[C:1]([c:2]1[c:3]([H:11])[c:4]([N:5]([H:12])[H:13])[c:6]([H:14])[o:7]1)([H:8])([H:9])[H:10]>>[C:1]([C:2](=[C:3]([C:4]1=[C:6]([H:14])[N+:5]1([H:12])[H:13])[H:11])[O-:7])([H:8])([H:9])[H:10]"
C        2.51359587      -0.08352821      -0.01791463
C        1.06050275       0.28763310       0.05477196
C        0.01921999      -0.66361597      -0.18307173
C       -1.19576104      -0.04616934      -0.12338165
N       -2.56639287      -0.40875173       0.04654947
C       -1.53180388       1.15764735       0.39092268
O        0.70859773       1.46160479       0.30972393
H        3.05196801       0.63121115      -0.64106869
H        2.68219559      -1.08192155      -0.42551379
H        2.93899647      -0.07467077       0.98794342
H        0.15387471      -1.73028395      -0.28579410
H       -2.82483461      -0.96485760       0.84363070
H       -3.11566814      -0.49941315      -0.79341329
H       -1.89449058       2.01511588      -0.16338427
14
Frame=7 idx=006853 GeodesicLength=0.3591984401603263 rxn_smarts="[C:1]([c:2]1[c:3]([H:11])[c:4]([N:5]([H:12])[H:13])[c:6]([H:14])[o:7]1)([H:8])([H:9])[H:10]>>[C:1]([C:2](=[C:3]([C:4]1=[C:6]([H:14])[N+:5]1([H:12])[H:13])[H:11])[O-:7])([H:8])([H:9])[H:10]"
C        2.51369124      -0.08085570      -0.01267429
C        1.05816446       0.27250224       0.08049794
C        0.02099219      -0.67044244      -0.19028351
C       -1.19547803      -0.04804054      -0.15208335
N       -2.56367435      -0.41045727       0.03784053
C       -1.51825895       1.14879515       0.38374251
O        0.69471057       1.44548515       0.34115705
H        3.02127719       0.59570041      -0.70148140
H        2.68826590      -1.10237492      -0.35553840
H        2.96995874       0.00326213       0.97585521
H        0.15290907      -1.73601794      -0.30739803
H       -2.81035822      -0.98569388       0.82513838
H       -3.13964262      -0.45354247      -0.78786320
H       -1.89255719       2.02168009      -0.13690943
14
Frame=8 idx=006853 GeodesicLength=0.4101934671578744 rxn_smarts="[C:1]([c:2]1[c:3]([H:11])[c:4]([N:5]([H:12])[H:13])[c:6]([H:14])[o:7]1)([H:8])([H:9])[H:10]>>[C:1]([C:2](=[C:3]([C:4]1=[C:6]([H:14])[N+:5]1([H:12])[H:13])[H:11])[O-:7])([H:8])([H:9])[H:10]"
C        2.51328075      -0.07882404      -0.00540232
C        1.05554419       0.25839680       0.10120879
C        0.02296831      -0.67530209      -0.20359479
C       -1.19502773      -0.04887377      -0.18090038
N       -2.55985087      -0.41275100       0.03091719
C       -1.50447013       1.14025181       0.37680544
O        0.68097264       1.43099150       0.36506267
H        2.99320649       0.55316274      -0.75431646
H        2.69530365      -1.11964951      -0.27989322
H        2.99374358       0.08055807       0.96200963
H        0.15275642      -1.73940460      -0.33611672
H       -2.79313100      -1.00727653       0.80805977
H       -3.16325181      -0.40874962      -0.77607127
H       -1.89204450       2.02747025      -0.10776833
14
Frame=9 idx=006853 GeodesicLength=0.46125099908323175 rxn_smarts="[C:1]([c:2]1[c:3]([H:11])[c:4]([N:5]([H:12])[H:13])[c:6]([H:14])[o:7]1)([H:8])([H:9])[H:10]>>[C:1]([C:2](=[C:3]([C:4]1=[C:6]([H:14])[N+:5]1([H:12])[H:13])[H:11])[O-:7])([H:8])([H:9])[H:10]"
C        2.51244139      -0.07674241       0.00127204
C        1.05268650       0.24417563       0.12197097
C        0.02515758      -0.67988022      -0.21586341
C       -1.19409800      -0.04923403      -0.20849320
N       -2.55558849      -0.41489127       0.02271948
C       -1.49093823       1.13203258       0.36978657
O        0.66724835       1.41622800       0.38968497
H        2.96395941       0.50599949      -0.80367959
H        2.70278613      -1.13221685      -0.20333075
H        3.01524409       0.15723221       0.94162264
H        0.15339932      -1.74223874      -0.36359932
H       -2.77691598      -1.02827938       0.78879378
H       -3.18431598      -0.36467642      -0.76308746
H       -1.89106609       2.03249141      -0.07779672
14
Frame=10 idx=006853 GeodesicLength=0.5123793881211344 rxn_smarts="[C:1]([c:2]1[c:3]([H:11])[c:4]([N:5]([H:12])[H:13])[c:6]([H:14])[o:7]1)([H:8])([H:9])[H:10]>>[C:1]([C:2](=[C:3]([C:4]1=[C:6]([H:14])[N+:5]1([H:12])[H:13])[H:11])[O-:7])([H:8])([H:9])[H:10]"
C        2.51118695      -0.07437066       0.00694266
C        1.04964697       0.22963220       0.14338691
C        0.02752452      -0.68470517      -0.22560585
C       -1.19259403      -0.04942091      -0.23457148
N       -2.55109032      -0.41673261       0.01311412
C       -1.47770042       1.12426989       0.36221470
O        0.65343611       1.40069011       0.41656097
H        2.93324722       0.45588128      -0.84914293
H        2.71093065      -1.13941397      -0.12824277
H        3.03464456       0.23193252       0.91449127
H        0.15485888      -1.74499335      -0.38872777
H       -2.76239498      -1.04805699       0.76754763
H       -3.20258540      -0.32141612      -0.74962996
H       -1.88911072       2.03670377      -0.04833752
14
Frame=11 idx=006853 GeodesicLength=0.5637620600304862 rxn_smarts="[C:1]([c:2]1[c:3]([H:11])[c:4]([N:5]([H:12])[H:13])[c:6]([H:14])[o:7]1)([H:8])([H:9])[H:10]>>[C:1]([C:2](=[C:3]([C:4]1=[C:6]([H:14])[N+:5]1([H:12])[H:13])[H:11])[O-:7])([H:8])([H:9])[H:10]"
C        2.50964066      -0.07214798       0.01292759
C        1.04646735       0.21590620       0.16199533
C        0.03007724      -0.68868451      -0.23649080
C       -1.19082718      -0.04890852      -0.26032222
N       -2.54607501      -0.41876037       0.00307354
C       -1.46457004       1.11662722       0.35503985
O        0.63970573       1.38600095       0.44034253
H        2.90433089       0.40022505      -0.88932902
H        2.71912678      -1.14219306      -0.05080894
H        3.04973164       0.30525075       0.88296925
H        0.15714032      -1.74661548      -0.41492239
H       -2.74750077      -1.06814176       0.74499521
H       -3.21955951      -0.27852208      -0.73319152
H       -1.88768809       2.03996359      -0.01627839
14
Frame=12 idx=006853 GeodesicLength=0.6155263672483167 rxn_smarts="[C:1]([c:2]1[c:3]([H:11])[c:4]([N:5]([H:12])[H:13])[c:6]([H:14])[o:7]1)([H:8])([H:9])[H:10]>>[C:1]([C:2](=[C:3]([C:4]1=[C:6]([H:14])[N+:5]1([H:12])[H:13])[H:11])[O-:7])([H:8])([H:9])[H:10]"
C        2.50777126      -0.06970295       0.01766087
C        1.04324580       0.20188064       0.18079511
C        0.03261934      -0.69323078      -0.24440770
C       -1.18844807      -0.04818312      -0.28469540
N       -2.54107086      -0.42007632      -0.00867898
C       -1.45154372       1.10933777       0.34781014
O        0.62594200       1.37035384       0.46654948
H        2.87449059       0.34153315      -0.92584494
H        2.72842448      -1.13959464       0.02542984
H        3.06234472       0.37719348       0.84437472
H        0.15997325      -1.74845634      -0.43835328
H       -2.73460813      -1.08702776       0.71987838
H       -3.23366653      -0.23642734      -0.71717718
H       -1.88547412       2.04240037       0.01665894
14
Frame=13 idx=006853 GeodesicLength=0.667556374233086 rxn_smarts="[C:1]([c:2]1[c:3]([H:11])[c:4]([N:5]([H:12])[H:13])[c:6]([H:14])[o:7]1)([H:8])([H:9])[H:10]>>[C:1]([C:2](=[C:3]([C:4]1=[C:6]([H:14])[N+:5]1([H:12])[H:13])[H:11])[O-:7])([H:8])([H:9])[H:10]"
C        2.50575011      -0.06722062       0.02187345
C        1.04003402       0.18850451       0.19717781
C        0.03516384      -0.69748001      -0.25222572
C       -1.18575071      -0.04687919      -0.30850841
N       -2.53592864      -0.42105677      -0.02142604
C       -1.43861025       1.10224635       0.34092889
O        0.61223093       1.35481986       0.49187031
H        2.84658667       0.27881300      -0.95725824
H        2.73809172      -1.13188607       0.10195711
H        3.07100144       0.44698067       0.80058910
H        0.16315601      -1.75003738      -0.46012908
H       -2.72233896      -1.10560748       0.69279147
H       -3.24600050      -0.19496064      -0.69976443
H       -1.88338568       2.04376379       0.05212379
14
Frame=14 idx=006853 GeodesicLength=0.7196485606728446 rxn_smarts="[C:1]([c:2]1[c:3]([H:11])[c:4]([N:5]([H:12])[H:13])[c:6]([H:14])[o:7]1)([H:8])([H:9])[H:10]>>[C:1]([C:2](=[C:3]([C:4]1=[C:6]([H:14])[N+:5]1([H:12])[H:13])[H:11])[O-:7])([H:8])([H:9])[H:10]"
C        2.50361311      -0.06462740       0.02561319
C        1.03681805       0.17596959       0.21085269
C        0.03768550      -0.70126974      -0.26050472
C       -1.18287024      -0.04501698      -0.33187699
N       -2.53067831      -0.42178261      -0.03477543
C       -1.42584489       1.09548772       0.33404750
O        0.59851532       1.33947684       0.51621681
H        2.82145816       0.21316211      -0.98295521
H        2.74767425      -1.11902800       0.17765252
H        3.07558863       0.51325419       0.75279348
H        0.16650195      -1.75137041      -0.48033496
H       -2.71044056      -1.12370468       0.66441470
H       -3.25672650      -0.15447619      -0.68050694
H       -1.88129448       2.04392556       0.08936335
14
Frame=15 idx=006853 GeodesicLength=0.7719574461907831 rxn_smarts="[C:1]([c:2]1[c:3]([H:11])[c:4]([N:5]([H:12])[H:13])[c:6]([H:14])[o:7]1)([H:8])([H:9])[H:10]>>[C:1]([C:2](=[C:3]([C:4]1=[C:6]([H:14])[N+:5]1([H:12])[H:13])[H:11])[O-:7])([H:8])([H:9])[H:10]"
C        2.50130775      -0.06169640       0.02829523
C        1.03364007       0.16331222       0.22407732
C        0.04009417      -0.70547436      -0.26718659
C       -1.17948802      -0.04287051      -0.35453490
N       -2.52546319      -0.42179131      -0.04945383
C       -1.41309038       1.08921830       0.32669111
O        0.58467305       1.32305223       0.54260231
H        2.79717306       0.14600930      -1.00395841
H        2.75820734      -1.10069101       0.25079086
H        3.07697113       0.57651461       0.69968209
H        0.16984383      -1.75325145      -0.49762342
H       -2.69993991      -1.14045107       0.63421685
H       -3.26534507      -0.11484609      -0.66105799
H       -1.87858384       2.04296555       0.12745937
14
Frame=16 idx=006853 GeodesicLength=0.8243831880430108 rxn_smarts="[C:1]([c:2]1[c:3]([H:11])[c:4]([N:5]([H:12])[H:13])[c:6]([H:14])[o:7]1)([H:8])([H:9])[H:10]>>[C:1]([C:2](=[C:3]([C:4]1=[C:6]([H:14])[N+:5]1([H:12])[H:13])[H:11])[O-:7])([H:8])([H:9])[H:10]"
C        2.49884067      -0.05869003       0.03046054
C        1.03042925       0.15072636       0.23606778
C        0.04236089      -0.70964067      -0.27381440
C       -1.17582029      -0.04025380      -0.37686459
N       -2.52020128      -0.42111965      -0.06466358
C       -1.40027236       1.08363583       0.31864751
O        0.57075874       1.30591472       0.56946900
H        2.77498645       0.07717560      -1.01946797
H        2.76923129      -1.07721934       0.32214292
H        3.07451469       0.63634222       0.64247462
H        0.17307216      -1.75518640      -0.51393866
H       -2.68999058      -1.15590938       0.60320283
H       -3.27227090      -0.07657082      -0.64045338
H       -1.87563873       2.04079538       0.16673737
