8
Frame=0 idx=001016 GeodesicLength=0.0 rxn_smarts="[N:1]#[C:2][C@@:3]1([H:6])[C:4]([H:7])([H:8])[O:5]1>>[N+:1](#[C-:2])[C@@:3]1([H:6])[C:4]([H:7])([H:8])[O:5]1"
N        1.63196835      -0.57965446       0.43563787
C        1.78871232       0.59296806       0.51268262
C        0.26355494       0.41081835      -0.26791016
C       -0.90205366      -0.42059302       0.02566145
O       -0.74719675       0.90766437       0.51241678
H        0.44179931       0.83653692      -1.24577622
H       -1.65873126      -0.54531461      -0.74233078
H       -0.81805322      -1.20242564       0.76961845
8
Frame=1 idx=001016 GeodesicLength=0.03280311548010935 rxn_smarts="[N:1]#[C:2][C@@:3]1([H:6])[C:4]([H:7])([H:8])[O:5]1>>[N+:1](#[C-:2])[C@@:3]1([H:6])[C:4]([H:7])([H:8])[O:5]1"
N        1.64586500      -0.57729014       0.42062750
C        1.79101551       0.59178270       0.52965388
C        0.26398985       0.40769213      -0.26776968
C       -0.90466511      -0.41987748       0.02565557
O       -0.75070252       0.90952229       0.50815115
H        0.43857182       0.83331609      -1.24680624
H       -1.66055785      -0.54642793      -0.74281817
H       -0.82351671      -1.19871766       0.77330598
8
Frame=2 idx=001016 GeodesicLength=0.06560516582915014 rxn_smarts="[N:1]#[C:2][C@@:3]1([H:6])[C:4]([H:7])([H:8])[O:5]1>>[N+:1](#[C-:2])[C@@:3]1([H:6])[C:4]([H:7])([H:8])[O:5]1"
N        1.65994489      -0.57441363       0.40545201
C        1.79323726       0.59011051       0.54688024
C        0.26443260       0.40453180      -0.26765406
C       -0.90727675      -0.41915433       0.02565598
O       -0.75416676       0.91140709       0.50382127
H        0.43526453       0.83003604      -1.24788939
H       -1.66241018      -0.54755026      -0.74327751
H       -0.82902559      -1.19496723       0.77701147
8
Frame=3 idx=001016 GeodesicLength=0.09838294510976539 rxn_smarts="[N:1]#[C:2][C@@:3]1([H:6])[C:4]([H:7])([H:8])[O:5]1>>[N+:1](#[C-:2])[C@@:3]1([H:6])[C:4]([H:7])([H:8])[O:5]1"
N        1.67420310      -0.57096454       0.39013979
C        1.79538108       0.58793578       0.56432079
C        0.26488885       0.40132043      -0.26756111
C       -0.90989144      -0.41842028       0.02565986
O       -0.75758337       0.91328310       0.49942567
H        0.43188750       0.82667003      -1.24899954
H       -1.66429242      -0.54865961      -0.74368444
H       -0.83459329      -1.19116491       0.78069898
8
Frame=4 idx=001016 GeodesicLength=0.13117532771092222 rxn_smarts="[N:1]#[C:2][C@@:3]1([H:6])[C:4]([H:7])([H:8])[O:5]1>>[N+:1](#[C-:2])[C@@:3]1([H:6])[C:4]([H:7])([H:8])[O:5]1"
N        1.68866294      -0.56693748       0.37469109
C        1.79745763       0.58524276       0.58200235
C        0.26535966       0.39806511      -0.26749988
C       -0.91251476      -0.41768247       0.02566673
O       -0.76094854       0.91518291       0.49497211
H        0.42843364       0.82322798      -1.25017011
H       -1.66622485      -0.54976782      -0.74405480
H       -0.84022571      -1.18733099       0.78439251
8
Frame=5 idx=001016 GeodesicLength=0.16393865402363403 rxn_smarts="[N:1]#[C:2][C@@:3]1([H:6])[C:4]([H:7])([H:8])[O:5]1>>[N+:1](#[C-:2])[C@@:3]1([H:6])[C:4]([H:7])([H:8])[O:5]1"
N        1.70330464      -0.56231049       0.35909988
C        1.79943472       0.58198904       0.59994094
C        0.26583869       0.39476604      -0.26747841
C       -0.91512774      -0.41693738       0.02567926
O       -0.76424597       0.91710759       0.49046767
H        0.42488343       0.81971287      -1.25142905
H       -1.66817694      -0.55087003      -0.74439915
H       -0.84591082      -1.18345765       0.78811886
8
Frame=6 idx=001016 GeodesicLength=0.19670620192655297 rxn_smarts="[N:1]#[C:2][C@@:3]1([H:6])[C:4]([H:7])([H:8])[O:5]1>>[N+:1](#[C-:2])[C@@:3]1([H:6])[C:4]([H:7])([H:8])[O:5]1"
N        1.71816170      -0.55698234       0.34336002
C        1.80134139       0.57816823       0.61809411
C        0.26634753       0.39139718      -0.26748603
C       -0.91775858      -0.41618736       0.02569226
O       -0.76748218       0.91900340       0.48589394
H        0.42129047       0.81607923      -1.25270534
H       -1.67018996      -0.55196122      -0.74466659
H       -0.85171037      -1.17951712       0.79181763
8
Frame=7 idx=001016 GeodesicLength=0.22947426905323814 rxn_smarts="[N:1]#[C:2][C@@:3]1([H:6])[C:4]([H:7])([H:8])[O:5]1>>[N+:1](#[C-:2])[C@@:3]1([H:6])[C:4]([H:7])([H:8])[O:5]1"
N        1.73323152      -0.55097076       0.32750402
C        1.80314925       0.57371876       0.63650066
C        0.26686046       0.38796372      -0.26753712
C       -0.92037633      -0.41542347       0.02570356
O       -0.77064221       0.92091011       0.48124644
H        0.41757248       0.81234227      -1.25405440
H       -1.67223993      -0.55302506      -0.74489745
H       -0.85755524      -1.17551556       0.79553428
8
Frame=8 idx=001016 GeodesicLength=0.26222974465110005 rxn_smarts="[N:1]#[C:2][C@@:3]1([H:6])[C:4]([H:7])([H:8])[O:5]1>>[N+:1](#[C-:2])[C@@:3]1([H:6])[C:4]([H:7])([H:8])[O:5]1"
N        1.74851123      -0.54421983       0.31156235
C        1.80488824       0.56865574       0.65511384
C        0.26739787       0.38445864      -0.26763899
C       -0.92300697      -0.41466017       0.02571761
O       -0.77371362       0.92282564       0.47655777
H        0.41378234       0.80849353      -1.25548519
H       -1.67435677      -0.55406318      -0.74507538
H       -0.86350232      -1.17149039       0.79924798
8
Frame=9 idx=001016 GeodesicLength=0.2949858404780984 rxn_smarts="[N:1]#[C:2][C@@:3]1([H:6])[C:4]([H:7])([H:8])[O:5]1>>[N+:1](#[C-:2])[C@@:3]1([H:6])[C:4]([H:7])([H:8])[O:5]1"
N        1.76401603      -0.53667509       0.29553142
C        1.80654537       0.56293419       0.67394596
C        0.26795865       0.38086953      -0.26779619
C       -0.92564819      -0.41389411       0.02573269
O       -0.77668707       0.92473877       0.47182070
H        0.40991112       0.80451639      -1.25700093
H       -1.67654513      -0.55506523      -0.74519800
H       -0.86955078      -1.16742446       0.80296436
8
Frame=10 idx=001016 GeodesicLength=0.32776635429756984 rxn_smarts="[N:1]#[C:2][C@@:3]1([H:6])[C:4]([H:7])([H:8])[O:5]1>>[N+:1](#[C-:2])[C@@:3]1([H:6])[C:4]([H:7])([H:8])[O:5]1"
N        1.77975044      -0.52828185       0.27944335
C        1.80814117       0.55652218       0.69297884
C        0.26854142       0.37718588      -0.26800822
C       -0.92830241      -0.41312133       0.02574300
O       -0.77955275       0.92663778       0.46704027
H        0.40594318       0.80038606      -1.25859764
H       -1.67881975      -0.55602181      -0.74526861
H       -0.87570130      -1.16330692       0.80666901
8
Frame=11 idx=001016 GeodesicLength=0.36048732782118825 rxn_smarts="[N:1]#[C:2][C@@:3]1([H:6])[C:4]([H:7])([H:8])[O:5]1>>[N+:1](#[C-:2])[C@@:3]1([H:6])[C:4]([H:7])([H:8])[O:5]1"
N        1.79568929      -0.51899686       0.26329607
C        1.80963176       0.54936484       0.71220720
C        0.26914448       0.37340389      -0.26828364
C       -0.93095283      -0.41234247       0.02575633
O       -0.78229282       0.92852857       0.46219792
H        0.40187770       0.79610911      -1.26028496
H       -1.68114631      -0.55692392      -0.74527214
H       -0.88195127      -1.15914317       0.81038322
8
Frame=12 idx=001016 GeodesicLength=0.39327702007242954 rxn_smarts="[N:1]#[C:2][C@@:3]1([H:6])[C:4]([H:7])([H:8])[O:5]1>>[N+:1](#[C-:2])[C@@:3]1([H:6])[C:4]([H:7])([H:8])[O:5]1"
N        1.81189533      -0.50876103       0.24713923
C        1.81109787       0.54146799       0.73160062
C        0.26978016       0.36950600      -0.26862574
C       -0.93363980      -0.41156333       0.02576403
O       -0.78492353       0.93041604       0.45732710
H        0.39773329       0.79165075      -1.26206068
H       -1.68360312      -0.55777428      -0.74521541
H       -0.88834020      -1.15494214       0.81407085
8
Frame=13 idx=001016 GeodesicLength=0.42597609686237586 rxn_smarts="[N:1]#[C:2][C@@:3]1([H:6])[C:4]([H:7])([H:8])[O:5]1>>[N+:1](#[C-:2])[C@@:3]1([H:6])[C:4]([H:7])([H:8])[O:5]1"
N        1.82828933      -0.49749930       0.23098810
C        1.81244477       0.53274792       0.75114859
C        0.27043733       0.36547397      -0.26904958
C       -0.93631814      -0.41077532       0.02577432
O       -0.78738205       0.93226317       0.45240385
H        0.39348335       0.78700895      -1.26394599
H       -1.68612243      -0.55852727      -0.74507928
H       -0.89483216      -1.15069211       0.81775999
8
Frame=14 idx=001016 GeodesicLength=0.45883334889393335 rxn_smarts="[N:1]#[C:2][C@@:3]1([H:6])[C:4]([H:7])([H:8])[O:5]1>>[N+:1](#[C-:2])[C@@:3]1([H:6])[C:4]([H:7])([H:8])[O:5]1"
N        1.84500665      -0.48517127       0.21485847
C        1.81379460       0.52319028       0.77089243
C        0.27112576       0.36130387      -0.26955835
C       -0.93904527      -0.40999159       0.02577433
O       -0.78971460       0.93414594       0.44745210
H        0.38912199       0.78215872      -1.26596327
H       -1.68882415      -0.55922361      -0.74490340
H       -0.90146498      -1.14641234       0.82144769
8
Frame=15 idx=001016 GeodesicLength=0.4916129681560161 rxn_smarts="[N:1]#[C:2][C@@:3]1([H:6])[C:4]([H:7])([H:8])[O:5]1>>[N+:1](#[C-:2])[C@@:3]1([H:6])[C:4]([H:7])([H:8])[O:5]1"
N        1.86192977      -0.47162286       0.19870015
C        1.81504267       0.51268638       0.79075087
C        0.27185981       0.35698397      -0.27014453
C       -0.94179400      -0.40919948       0.02578927
O       -0.79188090       0.93597152       0.44244347
H        0.38472771       0.77708390      -1.26805668
H       -1.69158795      -0.55986264      -0.74461970
H       -0.90829711      -1.14204080       0.82513716
8
Frame=16 idx=001016 GeodesicLength=0.5242181577137731 rxn_smarts="[N:1]#[C:2][C@@:3]1([H:6])[C:4]([H:7])([H:8])[O:5]1>>[N+:1](#[C-:2])[C@@:3]1([H:6])[C:4]([H:7])([H:8])[O:5]1"
N        1.87900062      -0.45681306       0.18265996
C        1.81613851       0.50120486       0.81068040
C        0.27261600       0.35247343      -0.27084141
C       -0.94452377      -0.40839719       0.02581059
O       -0.79380457       0.93773211       0.43737556
H        0.38022694       0.77176543      -1.27028760
H       -1.69442290      -0.56033392      -0.74422066
H       -0.91523084      -1.13763165       0.82882316
