17
Frame=0 idx=010889 GeodesicLength=0.0 rxn_smarts="[C:1]1([H:8])([H:9])[C@@:2]2([H:10])[C:3]([H:11])([H:12])[C@:4]3([H:13])[C:5]([H:14])([H:15])[C@@:6]2([H:16])[C@:7]13[H:17]>>[C:1]1([H:8])([H:9])[C@:2]2([H:10])[C:3]([H:11])([H:12])[C:4][C:5]([H:14])([H:15])[C@:6]2([H:16])[C:7]1([H:13])[H:17]"
C        1.43836358      -0.73358434      -0.24950084
C        0.88370138       0.65180175       0.12572588
C       -0.04056790       1.04400384      -1.03881595
C       -1.23822873       0.12783218      -0.85312303
C       -1.54195542       0.33441914       0.64871651
C       -0.15402713      -0.07465733       1.05857274
C        0.06204146      -1.25442852       0.08732367
H        1.85718815      -0.89177541      -1.24456347
H        2.14278507      -1.08579861       0.50943369
H        1.55490301       1.41448649       0.51733045
H        0.44218916       0.95958677      -2.01344174
H       -0.41523705       2.06651207      -0.93939192
H       -0.78974826      -1.06986620      -0.89488017
H       -1.83554537       1.36322716       0.86905899
H       -2.31445556      -0.34147834       1.01912686
H        0.14674647      -0.21903281       2.09912965
H       -0.19815288      -2.29124785       0.29929862
17
Frame=1 idx=010889 GeodesicLength=0.0592122672153358 rxn_smarts="[C:1]1([H:8])([H:9])[C@@:2]2([H:10])[C:3]([H:11])([H:12])[C@:4]3([H:13])[C:5]([H:14])([H:15])[C@@:6]2([H:16])[C@:7]13[H:17]>>[C:1]1([H:8])([H:9])[C@:2]2([H:10])[C:3]([H:11])([H:12])[C:4][C:5]([H:14])([H:15])[C@:6]2([H:16])[C:7]1([H:13])[H:17]"
C        1.43973364      -0.73295853      -0.24935690
C        0.88353467       0.65182956       0.12723540
C       -0.04025740       1.04853419      -1.03609003
C       -1.23859146       0.13504522      -0.84992287
C       -1.54239566       0.33535906       0.65001106
C       -0.15347409      -0.07650913       1.05861171
C        0.06093478      -1.25486027       0.08395478
H        1.85869334      -0.88755470      -1.24499734
H        2.14601987      -1.08639235       0.50700722
H        1.55301027       1.41480965       0.52107296
H        0.43680909       0.94957006      -2.01265362
H       -0.40567892       2.07493618      -0.94598620
H       -0.79894679      -1.08247364      -0.90696713
H       -1.83745530       1.36351280       0.87288398
H       -2.31618333      -0.34067751       1.01765049
H        0.14424394      -0.22078613       2.09966013
H       -0.18999664      -2.29138444       0.30788635
17
Frame=2 idx=010889 GeodesicLength=0.11841799712732856 rxn_smarts="[C:1]1([H:8])([H:9])[C@@:2]2([H:10])[C:3]([H:11])([H:12])[C@:4]3([H:13])[C:5]([H:14])([H:15])[C@@:6]2([H:16])[C@:7]13[H:17]>>[C:1]1([H:8])([H:9])[C@:2]2([H:10])[C:3]([H:11])([H:12])[C:4][C:5]([H:14])([H:15])[C@:6]2([H:16])[C:7]1([H:13])[H:17]"
C        1.44109692      -0.73232760      -0.24919417
C        0.88336350       0.65186466       0.12875871
C       -0.03993602       1.05305059      -1.03336644
C       -1.23893015       0.14222133      -0.84668239
C       -1.54282992       0.33630683       0.65132762
C       -0.15291456      -0.07835739       1.05866758
C        0.05980638      -1.25528948       0.08058254
H        1.86016640      -0.88332632      -1.24541130
H        2.14926249      -1.08696431       0.50457835
H        1.55110898       1.41513448       0.52482647
H        0.43134912       0.93967533      -2.01168627
H       -0.39596660       2.08323103      -0.95275660
H       -0.80826073      -1.09525685      -0.91906337
H       -1.83936876       1.36379894       0.87671088
H       -2.31790638      -0.33986087       1.01618321
H        0.14174505      -0.22253806       2.10019949
H       -0.18178570      -2.29136232       0.31632568
17
Frame=3 idx=010889 GeodesicLength=0.1776183957491987 rxn_smarts="[C:1]1([H:8])([H:9])[C@@:2]2([H:10])[C:3]([H:11])([H:12])[C@:4]3([H:13])[C:5]([H:14])([H:15])[C@@:6]2([H:16])[C@:7]13[H:17]>>[C:1]1([H:8])([H:9])[C@:2]2([H:10])[C:3]([H:11])([H:12])[C:4][C:5]([H:14])([H:15])[C@:6]2([H:16])[C:7]1([H:13])[H:17]"
C        1.44245338      -0.73169002      -0.24901294
C        0.88318761       0.65190814       0.13029643
C       -0.03960398       1.05755516      -1.03064424
C       -1.23924727       0.14936737      -0.84340068
C       -1.54325891       0.33726231       0.65266739
C       -0.15234895      -0.08020111       1.05874044
C        0.05865721      -1.25571513       0.07720911
H        1.86160619      -0.87908898      -1.24580602
H        2.15251388      -1.08751227       0.50214599
H        1.54919878       1.41546220       0.52859161
H        0.42581333       0.92990387      -2.01054132
H       -0.38609557       2.09139411      -0.95970372
H       -0.81768835      -1.10823116      -0.93117175
H       -1.84128655       1.36408495       0.88054365
H       -2.31962487      -0.33902988       1.01472459
H        0.13924957      -0.22428692       2.10074792
H       -0.17352551      -2.29118265       0.32461353
17
Frame=4 idx=010889 GeodesicLength=0.2368153484935695 rxn_smarts="[C:1]1([H:8])([H:9])[C@@:2]2([H:10])[C:3]([H:11])([H:12])[C@:4]3([H:13])[C:5]([H:14])([H:15])[C@@:6]2([H:16])[C@:7]13[H:17]>>[C:1]1([H:8])([H:9])[C@:2]2([H:10])[C:3]([H:11])([H:12])[C:4][C:5]([H:14])([H:15])[C@:6]2([H:16])[C:7]1([H:13])[H:17]"
C        1.44380291      -0.73104401      -0.24881353
C        0.88300663       0.65196128       0.13184932
C       -0.03926167       1.06205055      -1.02792212
C       -1.23954536       0.15649046      -0.84007641
C       -1.54368337       0.33822539       0.65403191
C       -0.15177767      -0.08203919       1.05883056
C        0.05748813      -1.25613592       0.07383653
H        1.86301148      -0.87484099      -1.24618219
H        2.15577486      -1.08803390       0.49970899
H        1.54727928       1.41579407       0.53236921
H        0.42020590       0.92025635      -2.00922061
H       -0.37606069       2.09942219      -0.96682908
H       -0.82722734      -1.12141247      -0.94329575
H       -1.84320949       1.36437023       0.88438672
H       -2.32133897      -0.33818605       1.01327433
H        0.13675743      -0.22603120       2.10130571
H       -0.16522206      -2.29084681       0.33274641
17
Frame=5 idx=010889 GeodesicLength=0.29600918919986524 rxn_smarts="[C:1]1([H:8])([H:9])[C@@:2]2([H:10])[C:3]([H:11])([H:12])[C@:4]3([H:13])[C:5]([H:14])([H:15])[C@@:6]2([H:16])[C@:7]13[H:17]>>[C:1]1([H:8])([H:9])[C@:2]2([H:10])[C:3]([H:11])([H:12])[C:4][C:5]([H:14])([H:15])[C@:6]2([H:16])[C:7]1([H:13])[H:17]"
C        1.44514548      -0.73038776      -0.24859624
C        0.88282039       0.65202543       0.13341824
C       -0.03890915       1.06653977      -1.02519866
C       -1.23982656       0.16359765      -0.83670846
C       -1.54410398       0.33919611       0.65542250
C       -0.15120112      -0.08387054       1.05893806
C        0.05629984      -1.25655034       0.07046634
H        1.86438124      -0.87058055      -1.24654059
H        2.15904617      -1.08852710       0.49726620
H        1.54535035       1.41613135       0.53616041
H        0.41453052       0.91073319      -2.00772610
H       -0.36585702       2.10731197      -0.97413368
H       -0.83687660      -1.13481755      -0.95543796
H       -1.84513840       1.36465425       0.88824423
H       -2.32304890      -0.33733075       1.01183186
H        0.13426845      -0.22776971       2.10187303
H       -0.15688070      -2.29035541       0.34072082
17
Frame=6 idx=010889 GeodesicLength=0.3552024929337462 rxn_smarts="[C:1]1([H:8])([H:9])[C@@:2]2([H:10])[C:3]([H:11])([H:12])[C@:4]3([H:13])[C:5]([H:14])([H:15])[C@@:6]2([H:16])[C@:7]13[H:17]>>[C:1]1([H:8])([H:9])[C@:2]2([H:10])[C:3]([H:11])([H:12])[C:4][C:5]([H:14])([H:15])[C@:6]2([H:16])[C:7]1([H:13])[H:17]"
C        1.44648080      -0.72971949      -0.24836167
C        0.88262860       0.65210194       0.13500378
C       -0.03854651       1.07102551      -1.02247296
C       -1.24009316       0.17069642      -0.83329552
C       -1.54452149       0.34017482       0.65684062
C       -0.15061977      -0.08569385       1.05906302
C        0.05509279      -1.25695668       0.06709994
H        1.86571427      -0.86630597      -1.24688206
H        2.16232819      -1.08898984       0.49481625
H        1.54341182       1.41647522       0.53996591
H        0.40879079       0.90133630      -2.00605903
H       -0.35547979       2.11506036      -0.98161791
H       -0.84663260      -1.14846508      -0.96760203
H       -1.84707390       1.36493681       0.89212066
H       -2.32475497      -0.33646499       1.01039651
H        0.13178250      -0.22950118       2.10244991
H       -0.14850757      -2.28971028       0.34853457
17
Frame=7 idx=010889 GeodesicLength=0.41439556855739174 rxn_smarts="[C:1]1([H:8])([H:9])[C@@:2]2([H:10])[C:3]([H:11])([H:12])[C@:4]3([H:13])[C:5]([H:14])([H:15])[C@@:6]2([H:16])[C@:7]13[H:17]>>[C:1]1([H:8])([H:9])[C@:2]2([H:10])[C:3]([H:11])([H:12])[C:4][C:5]([H:14])([H:15])[C@:6]2([H:16])[C:7]1([H:13])[H:17]"
C        1.44780878      -0.72903714      -0.24811025
C        0.88243111       0.65219245       0.13660679
C       -0.03817370       1.07551108      -1.01974368
C       -1.24034698       0.17779410      -0.82983606
C       -1.54493660       0.34116186       0.65828767
C       -0.15003391      -0.08750775       1.05920562
C        0.05386751      -1.25735285       0.06373857
H        1.86700958      -0.86201516      -1.24720736
H        2.16562138      -1.08942001       0.49235793
H        1.54146370       1.41682707       0.54378680
H        0.40298972       0.89206656      -2.00422105
H       -0.34492369       2.12266352      -0.98928276
H       -0.85649308      -1.16237419      -0.97979056
H       -1.84901671       1.36521758       0.89602058
H       -2.32645744      -0.33558982       1.00896746
H        0.12929951      -0.23122454       2.10303654
H       -0.14010918      -2.28891275       0.35618375
17
Frame=8 idx=010889 GeodesicLength=0.4735903075558537 rxn_smarts="[C:1]1([H:8])([H:9])[C@@:2]2([H:10])[C:3]([H:11])([H:12])[C@:4]3([H:13])[C:5]([H:14])([H:15])[C@@:6]2([H:16])[C@:7]13[H:17]>>[C:1]1([H:8])([H:9])[C@:2]2([H:10])[C:3]([H:11])([H:12])[C:4][C:5]([H:14])([H:15])[C@:6]2([H:16])[C:7]1([H:13])[H:17]"
C        1.44912909      -0.72833875      -0.24784259
C        0.88222771       0.65229877       0.13822793
C       -0.03779056       1.07999983      -1.01700981
C       -1.24059006       0.18489812      -0.82632785
C       -1.54535009       0.34215786       0.65976531
C       -0.14944408      -0.08931050       1.05936609
C        0.05262412      -1.25773647       0.06038376
H        1.86826607      -0.85770637      -1.24751739
H        2.16892592      -1.08981585       0.48989002
H        1.53950601       1.41718830       0.54762398
H        0.39713023       0.88292520      -2.00221418
H       -0.33418344       2.13011729      -0.99712831
H       -0.86645477      -1.17656389      -0.99200953
H       -1.85096751       1.36549657       0.89994875
H       -2.32815668      -0.33470625       1.00754425
H        0.12681924      -0.23293864       2.10363340
H       -0.13169120      -2.28796523       0.36366618
17
Frame=9 idx=010889 GeodesicLength=0.5320909031079841 rxn_smarts="[C:1]1([H:8])([H:9])[C@@:2]2([H:10])[C:3]([H:11])([H:12])[C@:4]3([H:13])[C:5]([H:14])([H:15])[C@@:6]2([H:16])[C@:7]13[H:17]>>[C:1]1([H:8])([H:9])[C@:2]2([H:10])[C:3]([H:11])([H:12])[C:4][C:5]([H:14])([H:15])[C@:6]2([H:16])[C:7]1([H:13])[H:17]"
C        1.45044959      -0.72763699      -0.24757167
C        0.88201677       0.65240650       0.13985018
C       -0.03741000       1.08447663      -1.01428885
C       -1.24082976       0.19197075      -0.82281628
C       -1.54576400       0.34314812       0.66125089
C       -0.14885048      -0.09111831       1.05953291
C        0.05137873      -1.25812909       0.05702906
H        1.86950785      -0.85339274      -1.24782747
H        2.17223981      -1.09019740       0.48741340
H        1.53753447       1.41755535       0.55145847
H        0.39127396       0.87388249      -2.00010408
H       -0.32336863       2.13746740      -1.00506810
H       -0.87647783      -1.19073974      -1.00419503
H       -1.85292778       1.36576820       0.90386867
H       -2.32985232      -0.33382248       1.00613182
H        0.12434323      -0.23465289       2.10423127
H       -0.12326362      -2.28698581       0.37110481
17
Frame=10 idx=010889 GeodesicLength=0.5912620348686943 rxn_smarts="[C:1]1([H:8])([H:9])[C@@:2]2([H:10])[C:3]([H:11])([H:12])[C@:4]3([H:13])[C:5]([H:14])([H:15])[C@@:6]2([H:16])[C@:7]13[H:17]>>[C:1]1([H:8])([H:9])[C@:2]2([H:10])[C:3]([H:11])([H:12])[C:4][C:5]([H:14])([H:15])[C@:6]2([H:16])[C:7]1([H:13])[H:17]"
C        1.45175499      -0.72690150      -0.24727046
C        0.88180282       0.65254767       0.14150967
C       -0.03700560       1.08897845      -1.01153944
C       -1.24105308       0.19910107      -0.81920495
C       -1.54617506       0.34416248       0.66279325
C       -0.14825217      -0.09289289       1.05972985
C        0.05010216      -1.25848107       0.05369441
H        1.87068262      -0.84904659      -1.24810514
H        2.17556787      -1.09051729       0.48492563
H        1.53556184       1.41793718       0.55532682
H        0.38530680       0.86499953      -1.99776808
H       -0.31225813       2.14461633      -1.01326552
H       -0.88662885      -1.20554282      -1.01648249
H       -1.85489679       1.36604126       0.90786099
H       -2.33154406      -0.33292356       1.00471890
H        0.12187139      -0.23634040       2.10484816
H       -0.11483674      -2.28573786       0.37822839
17
Frame=11 idx=010889 GeodesicLength=0.6504509587542975 rxn_smarts="[C:1]1([H:8])([H:9])[C@@:2]2([H:10])[C:3]([H:11])([H:12])[C@:4]3([H:13])[C:5]([H:14])([H:15])[C@@:6]2([H:16])[C@:7]13[H:17]>>[C:1]1([H:8])([H:9])[C@:2]2([H:10])[C:3]([H:11])([H:12])[C:4][C:5]([H:14])([H:15])[C@:6]2([H:16])[C:7]1([H:13])[H:17]"
C        1.45305117      -0.72614397      -0.24695516
C        0.88158334       0.65271019       0.14319016
C       -0.03659011       1.09349792      -1.00878122
C       -1.24127003       0.20626468      -0.81554376
C       -1.54658670       0.34518869       0.66437050
C       -0.14765087      -0.09465102       1.05994617
C        0.04880759      -1.25881437       0.05036868
H        1.87181309      -0.84467792      -1.24837238
H        2.17890586      -1.09079898       0.48242445
H        1.53358344       1.41833288       0.55921292
H        0.37929046       0.85625608      -1.99526380
H       -0.30095195       2.15160151      -1.02164169
H       -0.89686304      -1.22070906      -1.02880345
H       -1.85687636       1.36631419       0.91189547
H       -2.33323295      -0.33201890       1.00330799
H        0.11940366      -0.23801338       2.10547551
H       -0.10641661      -2.28433854       0.38516962
17
Frame=12 idx=010889 GeodesicLength=0.7096584488268832 rxn_smarts="[C:1]1([H:8])([H:9])[C@@:2]2([H:10])[C:3]([H:11])([H:12])[C@:4]3([H:13])[C:5]([H:14])([H:15])[C@@:6]2([H:16])[C@:7]13[H:17]>>[C:1]1([H:8])([H:9])[C@:2]2([H:10])[C:3]([H:11])([H:12])[C:4][C:5]([H:14])([H:15])[C@:6]2([H:16])[C:7]1([H:13])[H:17]"
C        1.45433784      -0.72536184      -0.24662624
C        0.88135861       0.65289579       0.14489201
C       -0.03616308       1.09803793      -1.00601142
C       -1.24148244       0.21346854      -0.81182681
C       -1.54699948       0.34622812       0.66598457
C       -0.14704660      -0.09638972       1.06018127
C        0.04749461      -1.25912344       0.04705259
H        1.87289832      -0.84028474      -1.24862817
H        2.18225304      -1.09103983       0.47990877
H        1.53160050       1.41874259       0.56311712
H        0.37322626       0.84765054      -1.99259714
H       -0.28944766       2.15842272      -1.03019303
H       -0.90717237      -1.23626062      -1.04117083
H       -1.85886638       1.36658638       0.91597722
H       -2.33491936      -0.33110729       1.00189833
H        0.11694060      -0.23967064       2.10611290
H       -0.09801242      -2.28279450       0.39192887
17
Frame=13 idx=010889 GeodesicLength=0.7688749565709682 rxn_smarts="[C:1]1([H:8])([H:9])[C@@:2]2([H:10])[C:3]([H:11])([H:12])[C@:4]3([H:13])[C:5]([H:14])([H:15])[C@@:6]2([H:16])[C@:7]13[H:17]>>[C:1]1([H:8])([H:9])[C@:2]2([H:10])[C:3]([H:11])([H:12])[C:4][C:5]([H:14])([H:15])[C@:6]2([H:16])[C:7]1([H:13])[H:17]"
C        1.45561389      -0.72455377      -0.24628402
C        0.88112838       0.65310537       0.14661548
C       -0.03572495       1.10260040      -1.00322715
C       -1.24169319       0.22071642      -0.80804759
C       -1.54741441       0.34728130       0.66763791
C       -0.14643978      -0.09810688       1.06043449
C        0.04616244      -1.25940432       0.04374690
H        1.87393618      -0.83586531      -1.24887128
H        2.18560926      -1.09123612       0.47737700
H        1.52961315       1.41916509       0.56703977
H        0.36711700       0.83918214      -1.98977581
H       -0.27773810       2.16508166      -1.03891631
H       -0.91755234      -1.25221499      -1.05359813
H       -1.86086767       1.36685638       0.92011021
H       -2.33660416      -0.33018757       1.00049061
H        0.11448191      -0.24131123       2.10676000
H       -0.08962762      -2.28110859       0.39850791
17
Frame=14 idx=010889 GeodesicLength=0.8285752223736921 rxn_smarts="[C:1]1([H:8])([H:9])[C@@:2]2([H:10])[C:3]([H:11])([H:12])[C@:4]3([H:13])[C:5]([H:14])([H:15])[C@@:6]2([H:16])[C@:7]13[H:17]>>[C:1]1([H:8])([H:9])[C@:2]2([H:10])[C:3]([H:11])([H:12])[C:4][C:5]([H:14])([H:15])[C@:6]2([H:16])[C:7]1([H:13])[H:17]"
C        1.45687545      -0.72369163      -0.24592619
C        0.88089059       0.65336679       0.14838191
C       -0.03526853       1.10721871      -1.00043673
C       -1.24188900       0.22806913      -0.80420325
C       -1.54782820       0.34836316       0.66934229
C       -0.14582797      -0.09979171       1.06073146
C        0.04479896      -1.25964768       0.04044560
H        1.87487578      -0.83140607      -1.24912205
H        2.18898210      -1.09136334       0.47481463
H        1.52762636       1.41962080       0.57101974
H        0.36093443       0.83093315      -1.98668564
H       -0.26570853       2.17144696      -1.04792368
H       -0.92804501      -1.26885813      -1.06608983
H       -1.86287487       1.36714156       0.92434769
H       -2.33829457      -0.32927106       0.99905809
H        0.11202986      -0.24293867       2.10743661
H       -0.08127686      -2.27919199       0.40480934
17
Frame=15 idx=010889 GeodesicLength=0.8878066760893929 rxn_smarts="[C:1]1([H:8])([H:9])[C@@:2]2([H:10])[C:3]([H:11])([H:12])[C@:4]3([H:13])[C:5]([H:14])([H:15])[C@@:6]2([H:16])[C@:7]13[H:17]>>[C:1]1([H:8])([H:9])[C@:2]2([H:10])[C:3]([H:11])([H:12])[C:4][C:5]([H:14])([H:15])[C@:6]2([H:16])[C:7]1([H:13])[H:17]"
C        1.45812440      -0.72282577      -0.24556777
C        0.88064758       0.65362775       0.15015157
C       -0.03479881       1.11185450      -0.99761268
C       -1.24210310       0.23545341      -0.80030199
C       -1.54825360       0.34945424       0.67108024
C       -0.14522401      -0.10146593       1.06100944
C        0.04342052      -1.25985978       0.03714843
H        1.87584289      -0.82690126      -1.24934730
H        2.19234495      -1.09148327       0.47223576
H        1.52562420       1.42007585       0.57498489
H        0.35473232       0.82275895      -1.98353170
H       -0.25355540       2.17774219      -1.05700626
H       -0.93855761      -1.28574923      -1.07858483
H       -1.86490118       1.36741329       0.92859820
H       -2.33997580      -0.32832507       0.99764856
H        0.10957311      -0.24455104       2.10808806
H       -0.07294046      -2.27721884       0.41100737
17
Frame=16 idx=010889 GeodesicLength=0.9469859844343502 rxn_smarts="[C:1]1([H:8])([H:9])[C@@:2]2([H:10])[C:3]([H:11])([H:12])[C@:4]3([H:13])[C:5]([H:14])([H:15])[C@@:6]2([H:16])[C@:7]13[H:17]>>[C:1]1([H:8])([H:9])[C@:2]2([H:10])[C:3]([H:11])([H:12])[C:4][C:5]([H:14])([H:15])[C@:6]2([H:16])[C:7]1([H:13])[H:17]"
C        1.45936156      -0.72192420      -0.24520138
C        0.88039875       0.65392277       0.15194735
C       -0.03431679       1.11652950      -0.99478164
C       -1.24231375       0.24290892      -0.79634625
C       -1.54868092       0.35056369       0.67285718
C       -0.14461768      -0.10311629       1.06131272
C        0.04201958      -1.26004057       0.03385311
H        1.87674820      -0.82236363      -1.24957296
H        2.19571715      -1.09155387       0.46963246
H        1.52361909       1.42055008       0.57898514
H        0.34849144       0.81473302      -1.98021510
H       -0.24118400       2.18384138      -1.06626654
H       -0.94913365      -1.30310751      -1.09114026
H       -1.86693305       1.36769101       0.93292249
H       -2.34166098      -0.32737514       0.99622626
H        0.10712028      -0.24615222       2.10875612
H       -0.06463523      -2.27510695       0.41703133
