15
Frame=0 idx=010443 GeodesicLength=0.0 rxn_smarts="[N:1]([C:2](=[O:3])[C:4]([N:5]1[C:6]([H:12])([H:13])[C:7]1([H:14])[H:15])([H:10])[H:11])([H:8])[H:9]>>[N:1](=[C:2](/[O:3][H:9])[C:4]([N:5]1[C:6]([H:12])([H:13])[C:7]1([H:14])[H:15])([H:10])[H:11])\[H:8]"
N        2.05428779       0.54186216      -0.92113697
C        1.64472934      -0.32213722      -0.04558085
O        2.65921424      -0.69533985       0.64624991
C        0.26768586      -0.85609000       0.17874178
N       -0.72495199      -0.04559274      -0.49167626
C       -1.27264393       1.05028405       0.28848804
C       -2.07909478      -0.15907970       0.01106264
H        1.45591184       0.96106275      -1.61636368
H        3.11641820       0.16169549      -0.23044157
H        0.24080240      -1.87062293      -0.22899448
H        0.11074271      -0.94010917       1.26388320
H       -0.89963111       1.18186249       1.30014948
H       -1.45703257       1.96829898      -0.25536195
H       -2.25496831      -0.84083458       0.83825286
H       -2.86146974      -0.13525973      -0.73727216
15
Frame=1 idx=010443 GeodesicLength=0.08896640498453441 rxn_smarts="[N:1]([C:2](=[O:3])[C:4]([N:5]1[C:6]([H:12])([H:13])[C:7]1([H:14])[H:15])([H:10])[H:11])([H:8])[H:9]>>[N:1](=[C:2](/[O:3][H:9])[C:4]([N:5]1[C:6]([H:12])([H:13])[C:7]1([H:14])[H:15])([H:10])[H:11])\[H:8]"
N        2.06190429       0.51956138      -0.95526497
C        1.65869107      -0.34810623      -0.08000945
O        2.67461181      -0.71590943       0.61270049
C        0.27389578      -0.83178721       0.20372741
N       -0.70665791      -0.00752845      -0.46564379
C       -1.29775326       1.05113684       0.33178556
C       -2.07643986      -0.15725597      -0.01957296
H        1.47990743       0.87359629      -1.69855527
H        3.12065529       0.21512030      -0.21426928
H        0.21121813      -1.85919341      -0.16697034
H        0.14933609      -0.89028849       1.29411709
H       -0.97015155       1.15069273       1.36256085
H       -1.47510689       1.98646296      -0.18426220
H       -2.27301277      -0.87159942       0.77477209
H       -2.83109765      -0.11490190      -0.79511521
15
Frame=2 idx=010443 GeodesicLength=0.1746234093348625 rxn_smarts="[N:1]([C:2](=[O:3])[C:4]([N:5]1[C:6]([H:12])([H:13])[C:7]1([H:14])[H:15])([H:10])[H:11])([H:8])[H:9]>>[N:1](=[C:2](/[O:3][H:9])[C:4]([N:5]1[C:6]([H:12])([H:13])[C:7]1([H:14])[H:15])([H:10])[H:11])\[H:8]"
N        2.06655697       0.49586485      -0.98950921
C        1.67066749      -0.37630201      -0.11453814
O        2.68990538      -0.73452449       0.57859773
C        0.28158594      -0.80608219       0.23059494
N       -0.68749906       0.03096739      -0.43773265
C       -1.32382417       1.05016350       0.37415326
C       -2.07067751      -0.15426215      -0.05208679
H        1.50092067       0.79046719      -1.77015954
H        3.11915712       0.25981267      -0.20655088
H        0.18326319      -1.84490114      -0.09920765
H        0.19124617      -0.83613016       1.32492476
H       -1.04326149       1.11529288       1.42134995
H       -1.49527423       2.00219636      -0.11255613
H       -2.28691576      -0.90079125       0.70671669
H       -2.79585070      -0.09177145      -0.85399633
15
Frame=3 idx=010443 GeodesicLength=0.25772929092106617 rxn_smarts="[N:1]([C:2](=[O:3])[C:4]([N:5]1[C:6]([H:12])([H:13])[C:7]1([H:14])[H:15])([H:10])[H:11])([H:8])[H:9]>>[N:1](=[C:2](/[O:3][H:9])[C:4]([N:5]1[C:6]([H:12])([H:13])[C:7]1([H:14])[H:15])([H:10])[H:11])\[H:8]"
N        2.06879436       0.46921946      -1.02471072
C        1.68037311      -0.40494063      -0.14720130
O        2.70439993      -0.75173267       0.54515310
C        0.29083653      -0.77809374       0.25966437
N       -0.66755401       0.07075697      -0.40752131
C       -1.35172325       1.04716258       0.41617613
C       -2.06157607      -0.15003683      -0.08680622
H        1.51759481       0.71117653      -1.83310260
H        3.11509408       0.29423401      -0.20870941
H        0.15776636      -1.82644940      -0.02581659
H        0.23609072      -0.77711098       1.35622879
H       -1.11975591       1.07473433       1.47678471
H       -1.51894203       2.01544303      -0.03898138
H       -2.29613471      -0.92888776       0.63302583
H       -2.75526393      -0.06547489      -0.91418340
15
Frame=4 idx=010443 GeodesicLength=0.3386656988982746 rxn_smarts="[N:1]([C:2](=[O:3])[C:4]([N:5]1[C:6]([H:12])([H:13])[C:7]1([H:14])[H:15])([H:10])[H:11])([H:8])[H:9]>>[N:1](=[C:2](/[O:3][H:9])[C:4]([N:5]1[C:6]([H:12])([H:13])[C:7]1([H:14])[H:15])([H:10])[H:11])\[H:8]"
N        2.06859863       0.43895131      -1.06099883
C        1.68750346      -0.43315431      -0.17686294
O        2.71763166      -0.76808615       0.51287428
C        0.30151199      -0.74739159       0.29098963
N       -0.64695365       0.11256484      -0.37470738
C       -1.38188589       1.04180388       0.45825547
C       -2.04872326      -0.14420687      -0.12386909
H        1.52896770       0.63327906      -1.88964490
H        3.11018437       0.31944328      -0.22025594
H        0.13498387      -1.80305710       0.05275832
H        0.28352163      -0.71302149       1.38774961
H       -1.19944254       1.02794060       1.52872317
H       -1.54716938       2.02591256       0.03759598
H       -2.29973775      -0.95589997       0.55278860
H       -2.70899084      -0.03507806      -0.97539595
15
Frame=5 idx=010443 GeodesicLength=0.41785023580935277 rxn_smarts="[N:1]([C:2](=[O:3])[C:4]([N:5]1[C:6]([H:12])([H:13])[C:7]1([H:14])[H:15])([H:10])[H:11])([H:8])[H:9]>>[N:1](=[C:2](/[O:3][H:9])[C:4]([N:5]1[C:6]([H:12])([H:13])[C:7]1([H:14])[H:15])([H:10])[H:11])\[H:8]"
N        2.06520157       0.40500149      -1.09815292
C        1.69180475      -0.46082081      -0.20310123
O        2.72933684      -0.78363503       0.48197481
C        0.31355531      -0.71382204       0.32474325
N       -0.62577189       0.15673915      -0.33888902
C       -1.41434115       1.03354071       0.50060068
C       -2.03158398      -0.13618998      -0.16339712
H        1.53415364       0.55438489      -1.94139879
H        3.10513176       0.33682651      -0.24088149
H        0.11481793      -1.77432795       0.13669206
H        0.33342156      -0.64350010       1.41931493
H       -1.28237977       0.97344681       1.57685031
H       -1.58022617       2.03299005       0.11803130
H       -2.29685261      -0.98133266       0.46510199
H       -2.65626780       0.00069896      -1.03748875
15
Frame=6 idx=010443 GeodesicLength=0.49514822525111907 rxn_smarts="[N:1]([C:2](=[O:3])[C:4]([N:5]1[C:6]([H:12])([H:13])[C:7]1([H:14])[H:15])([H:10])[H:11])([H:8])[H:9]>>[N:1](=[C:2](/[O:3][H:9])[C:4]([N:5]1[C:6]([H:12])([H:13])[C:7]1([H:14])[H:15])([H:10])[H:11])\[H:8]"
N        2.05807534       0.36775135      -1.13520923
C        1.69290576      -0.48825458      -0.22584703
O        2.73893371      -0.79915962       0.45251424
C        0.32666215      -0.67770405       0.36040568
N       -0.60438862       0.20304427      -0.30054910
C       -1.44860819       1.02203773       0.54228976
C       -2.00977886      -0.12562893      -0.20472659
H        1.53245617       0.47440455      -1.98815796
H        3.09957107       0.34786277      -0.26857483
H        0.09702326      -1.74027751       0.22508161
H        0.38540139      -0.56897831       1.45004560
H       -1.36598074       0.91139940       1.61944944
H       -1.61860326       2.03574619       0.20125746
H       -2.28583361      -1.00443410       0.37065131
H       -2.59783557       0.04219082      -1.09863035
15
Frame=7 idx=010443 GeodesicLength=0.5710634689527478 rxn_smarts="[N:1]([C:2](=[O:3])[C:4]([N:5]1[C:6]([H:12])([H:13])[C:7]1([H:14])[H:15])([H:10])[H:11])([H:8])[H:9]>>[N:1](=[C:2](/[O:3][H:9])[C:4]([N:5]1[C:6]([H:12])([H:13])[C:7]1([H:14])[H:15])([H:10])[H:11])\[H:8]"
N        2.04640569       0.32765437      -1.17141378
C        1.69054530      -0.51573391      -0.24508978
O        2.74610661      -0.81474069       0.42454994
C        0.34070667      -0.63949063       0.39763187
N       -0.58303213       0.25107786      -0.25986473
C       -1.48398568       1.00695887       0.58261376
C       -1.98302991      -0.11214022      -0.24720029
H        1.52340567       0.39297566      -2.02999290
H        3.09273167       0.35399847      -0.30196155
H        0.08129681      -1.70102900       0.31714600
H        0.43902345      -0.49015875       1.47924446
H       -1.44882628       0.84179688       1.65540139
H       -1.66180430       2.03330289       0.28624854
H       -2.26568178      -1.02413975       0.27034122
H       -2.53386178       0.08966794      -1.15765418
15
Frame=8 idx=010443 GeodesicLength=0.6457990819223153 rxn_smarts="[N:1]([C:2](=[O:3])[C:4]([N:5]1[C:6]([H:12])([H:13])[C:7]1([H:14])[H:15])([H:10])[H:11])([H:8])[H:9]>>[N:1](=[C:2](/[O:3][H:9])[C:4]([N:5]1[C:6]([H:12])([H:13])[C:7]1([H:14])[H:15])([H:10])[H:11])\[H:8]"
N        2.03014661       0.28595135      -1.20529594
C        1.68449892      -0.54326723      -0.26084300
O        2.75017465      -0.83089366       0.39844617
C        0.35519235      -0.60003561       0.43526562
N       -0.56232821       0.29989056      -0.21810901
C       -1.51925872       0.98852464       0.62005352
C       -1.95180226      -0.09584122      -0.28931450
H        1.50752622       0.31160028      -2.06607518
H        3.08389123       0.35637808      -0.33839061
H        0.06733827      -1.65723110       0.41029161
H        0.49324552      -0.40912466       1.50563626
H       -1.52708776       0.76676393       1.68316638
H       -1.70937770       2.02500529       0.37022066
H       -2.23533058      -1.03970391       0.16690493
H       -2.46682854       0.14198326      -1.21195691
15
Frame=9 idx=010443 GeodesicLength=0.7201734836284448 rxn_smarts="[N:1]([C:2](=[O:3])[C:4]([N:5]1[C:6]([H:12])([H:13])[C:7]1([H:14])[H:15])([H:10])[H:11])([H:8])[H:9]>>[N:1](=[C:2](/[O:3][H:9])[C:4]([N:5]1[C:6]([H:12])([H:13])[C:7]1([H:14])[H:15])([H:10])[H:11])\[H:8]"
N        2.00923642       0.24368906      -1.23604118
C        1.67490508      -0.57086985      -0.27326575
O        2.75107970      -0.84723369       0.37445624
C        0.36987622      -0.56051089       0.47244591
N       -0.54261498       0.34826943      -0.17604098
C       -1.55311938       0.96718310       0.65366540
C       -1.91684318      -0.07698846      -0.32979184
H        1.48550002       0.23139085      -2.09630328
H        3.07213732       0.35680546      -0.37588826
H        0.05475886      -1.61002123       0.50209204
H        0.54704062      -0.32844850       1.52855459
H       -1.59903270       0.68834149       1.70231679
H       -1.75933624       2.01080540       0.45070173
H       -2.19539334      -1.05018573       0.06342727
H       -2.39819443       0.19777356      -1.26032867
15
Frame=10 idx=010443 GeodesicLength=0.7949795339611501 rxn_smarts="[N:1]([C:2](=[O:3])[C:4]([N:5]1[C:6]([H:12])([H:13])[C:7]1([H:14])[H:15])([H:10])[H:11])([H:8])[H:9]>>[N:1](=[C:2](/[O:3][H:9])[C:4]([N:5]1[C:6]([H:12])([H:13])[C:7]1([H:14])[H:15])([H:10])[H:11])\[H:8]"
N        1.98422655       0.20208050      -1.26298420
C        1.66209688      -0.59805895      -0.28244320
O        2.74884709      -0.86369817       0.35274987
C        0.38437081      -0.52174912       0.50836052
N       -0.52421876       0.39550482      -0.13445260
C       -1.58474929       0.94368667       0.68283618
C       -1.87917284      -0.05609123      -0.36759907
H        1.45871619       0.15321675      -2.12073172
H        3.05754875       0.35613224      -0.41304961
H        0.04334051      -1.56060991       0.59001098
H        0.59942043      -0.25048992       1.54768782
H       -1.66309429       0.60900549       1.71311260
H       -1.81062389       1.99115107       0.52571922
H       -2.14664941      -1.05543660      -0.03737739
H       -2.33005873       0.25535637      -1.30183940
15
Frame=11 idx=010443 GeodesicLength=0.870804605569068 rxn_smarts="[N:1]([C:2](=[O:3])[C:4]([N:5]1[C:6]([H:12])([H:13])[C:7]1([H:14])[H:15])([H:10])[H:11])([H:8])[H:9]>>[N:1](=[C:2](/[O:3][H:9])[C:4]([N:5]1[C:6]([H:12])([H:13])[C:7]1([H:14])[H:15])([H:10])[H:11])\[H:8]"
N        1.95573512       0.16190893      -1.28597778
C        1.64660875      -0.62454099      -0.28864338
O        2.74383487      -0.87982093       0.33339669
C        0.39843962      -0.48455321       0.54249450
N       -0.50727915       0.44083972      -0.09388264
C       -1.61347426       0.91881361       0.70739056
C       -1.83983999      -0.03368007      -0.40212932
H        1.42845837       0.07761283      -2.13975646
H        3.04009409       0.35552849      -0.44888343
H        0.03283821      -1.51037403       0.67228502
H        0.64974763      -0.17714321       1.56317412
H       -1.71880949       0.53074227       1.71635354
H       -1.86171440       1.96687062       0.59400094
H       -2.09075745      -1.05548981      -0.13339601
H       -2.26388191       0.31328578      -1.33642633
15
Frame=12 idx=010443 GeodesicLength=0.948022524073366 rxn_smarts="[N:1]([C:2](=[O:3])[C:4]([N:5]1[C:6]([H:12])([H:13])[C:7]1([H:14])[H:15])([H:10])[H:11])([H:8])[H:9]>>[N:1](=[C:2](/[O:3][H:9])[C:4]([N:5]1[C:6]([H:12])([H:13])[C:7]1([H:14])[H:15])([H:10])[H:11])\[H:8]"
N        1.92440270       0.12374200      -1.30515044
C        1.62898218      -0.65014170      -0.29227685
O        2.73650462      -0.89545277       0.31610981
C        0.41197988      -0.44942727       0.57466308
N       -0.49181118       0.48377958      -0.05455579
C       -1.63905581       0.89324558       0.72748721
C       -1.79969628      -0.01030858      -0.43319214
H        1.39583659       0.00512039      -2.15391810
H        3.01998157       0.35571083      -0.48292491
H        0.02308389      -1.46044173       0.74823535
H        0.69779995      -0.10938907       1.57542155
H       -1.76659465       0.45493125       1.71308103
H       -1.91145585       1.93893068       0.65493106
H       -2.02957884      -1.05068564      -0.22324813
H       -2.20037878       0.37038644      -1.36466274
15
Frame=13 idx=010443 GeodesicLength=1.0267914122211366 rxn_smarts="[N:1]([C:2](=[O:3])[C:4]([N:5]1[C:6]([H:12])([H:13])[C:7]1([H:14])[H:15])([H:10])[H:11])([H:8])[H:9]>>[N:1](=[C:2](/[O:3][H:9])[C:4]([N:5]1[C:6]([H:12])([H:13])[C:7]1([H:14])[H:15])([H:10])[H:11])\[H:8]"
N        1.89077979       0.08793273      -1.32078899
C        1.60969438      -0.67482248      -0.29381287
O        2.72731161      -0.91057721       0.30045430
C        0.42499714      -0.41670359       0.60488382
N       -0.47773711       0.52398344      -0.01646967
C       -1.66150867       0.86753861       0.74345715
C       -1.75932586       0.01347931      -0.46085890
H        1.36168270      -0.06371178      -2.16384096
H        2.99742091       0.35718760      -0.51498306
H        0.01397334      -1.41168897       0.81787863
H        0.74360910      -0.04760077       1.58492221
H       -1.80735696       0.38245229       1.70433137
H       -1.95891270       1.90834467       0.70831489
H       -1.96502839      -1.04156372      -0.30604724
H       -2.13959928       0.42574988      -1.38744067
15
Frame=14 idx=010443 GeodesicLength=1.107018999770945 rxn_smarts="[N:1]([C:2](=[O:3])[C:4]([N:5]1[C:6]([H:12])([H:13])[C:7]1([H:14])[H:15])([H:10])[H:11])([H:8])[H:9]>>[N:1](=[C:2](/[O:3][H:9])[C:4]([N:5]1[C:6]([H:12])([H:13])[C:7]1([H:14])[H:15])([H:10])[H:11])\[H:8]"
N        1.85558892       0.05432260      -1.33327141
C        1.58917231      -0.69855787      -0.29352396
O        2.71657645      -0.92510282       0.28638266
C        0.43743671      -0.38624317       0.63317413
N       -0.46503734       0.56138748       0.02005734
C       -1.68091916       0.84197297       0.75579345
C       -1.71938749       0.03744260      -0.48536570
H        1.32689102      -0.12915999      -2.17009931
H        2.97282131       0.36006501      -0.54504664
H        0.00542164      -1.36438512       0.88166924
H        0.78735727       0.00875681       1.59186898
H       -1.84164270       0.31337921       1.69102572
H       -2.00372905       1.87577285       0.75492485
H       -1.89830917      -1.02878541      -0.38225361
H       -2.08224072       0.47913487      -1.40533572
15
Frame=15 idx=010443 GeodesicLength=1.1890934440879881 rxn_smarts="[N:1]([C:2](=[O:3])[C:4]([N:5]1[C:6]([H:12])([H:13])[C:7]1([H:14])[H:15])([H:10])[H:11])([H:8])[H:9]>>[N:1](=[C:2](/[O:3][H:9])[C:4]([N:5]1[C:6]([H:12])([H:13])[C:7]1([H:14])[H:15])([H:10])[H:11])\[H:8]"
N        1.81889774       0.02296149      -1.34300956
C        1.56759224      -0.72132624      -0.29172854
O        2.70454803      -0.93932657       0.27330095
C        0.44938227      -0.35790032       0.65989343
N       -0.45352980       0.59638269       0.05561629
C       -1.69785977       0.81666129       0.76498400
C       -1.67970929       0.06140526      -0.50715776
H        1.29173327      -0.19147856      -2.17329638
H        2.94645292       0.36413569      -0.57364718
H       -0.00256265      -1.31867386       0.94045485
H        0.82932862       0.06013037       1.59679340
H       -1.87056248       0.24772921       1.67407007
H       -2.04633343       1.84164043       0.79525967
H       -1.83001306      -1.01283368      -0.45214750
H       -2.02736458       0.53049278      -1.41938575
15
Frame=16 idx=010443 GeodesicLength=1.2729853575488181 rxn_smarts="[N:1]([C:2](=[O:3])[C:4]([N:5]1[C:6]([H:12])([H:13])[C:7]1([H:14])[H:15])([H:10])[H:11])([H:8])[H:9]>>[N:1](=[C:2](/[O:3][H:9])[C:4]([N:5]1[C:6]([H:12])([H:13])[C:7]1([H:14])[H:15])([H:10])[H:11])\[H:8]"
N        1.78108545      -0.00648472      -1.35035868
C        1.54524463      -0.74326188      -0.28860552
O        2.69150768      -0.95310324       0.26120716
C        0.46088635      -0.33154668       0.68515864
N       -0.44314108       0.62896555       0.09010836
C       -1.71246781       0.79168565       0.77143594
C       -1.64057718       0.08526773      -0.52654944
H        1.25658013      -0.25098496      -2.17388307
H        2.91842217       0.36956402      -0.60087977
H       -0.01001699      -1.27459829       0.99489316
H        0.86974114       0.10713184       1.59983847
H       -1.89473728       0.18519224       1.65401135
H       -2.08645375       1.80638834       0.83006825
H       -1.76104243      -0.99415059      -0.51629784
H       -1.97503103       0.57993500      -1.43014700
