14
Frame=0 idx=005582 GeodesicLength=0.0 rxn_smarts="[C:1]1([H:7])([H:8])[C@:2]2([H:9])[C:3]([H:10])([H:11])[C:4]([H:12])([H:13])[C@@:5]1([H:14])[O:6]2>>[C:1](=[C:5]([C:4]([C:3]([C:2](=[O:6])[H:9])([H:10])[H:11])([H:12])[H:13])[H:14])([H:7])[H:8]"
C        1.19261004       0.33813010      -0.68257635
C        0.24497907       0.89738668       0.76493895
C       -1.12227028       0.42552510       0.20259855
C       -0.77252146      -1.01151748      -0.22493149
C        0.71228547      -0.90572827      -0.23345082
O        0.74616071       0.16354601       1.70781286
H        0.69025347       0.79860718      -1.52849920
H        2.25497938       0.53318073      -0.60659820
H        0.30343247       1.99794505       0.87796314
H       -1.87743940       0.46409483       0.98922390
H       -1.46060590       1.04624844      -0.62929637
H       -1.11203304      -1.77420099       0.47106952
H       -1.14822111      -1.26214856      -1.22194953
H        1.34839052      -1.71106887       0.11369505
14
Frame=1 idx=005582 GeodesicLength=0.051596782023925904 rxn_smarts="[C:1]1([H:7])([H:8])[C@:2]2([H:9])[C:3]([H:10])([H:11])[C:4]([H:12])([H:13])[C@@:5]1([H:14])[O:6]2>>[C:1](=[C:5]([C:4]([C:3]([C:2](=[O:6])[H:9])([H:10])[H:11])([H:12])[H:13])[H:14])([H:7])[H:8]"
C        1.19859842       0.33578125      -0.68647913
C        0.23647089       0.90563781       0.76989680
C       -1.12426210       0.42780656       0.20131777
C       -0.77021095      -1.01012524      -0.21957498
C        0.71652141      -0.90596023      -0.23040433
O        0.73925797       0.15813600       1.70328297
H        0.69716874       0.80242234      -1.52954450
H        2.26245075       0.52575489      -0.61619146
H        0.29107499       2.00423927       0.89612709
H       -1.88519274       0.46806286       0.98226072
H       -1.45764381       1.04597726      -0.63449324
H       -1.10692287      -1.76735626       0.48416092
H       -1.14884339      -1.26836554      -1.21319846
H        1.35153269      -1.72201097       0.09283981
14
Frame=2 idx=005582 GeodesicLength=0.10318598959543152 rxn_smarts="[C:1]1([H:7])([H:8])[C@:2]2([H:9])[C:3]([H:10])([H:11])[C:4]([H:12])([H:13])[C@@:5]1([H:14])[O:6]2>>[C:1](=[C:5]([C:4]([C:3]([C:2](=[O:6])[H:9])([H:10])[H:11])([H:12])[H:13])[H:14])([H:7])[H:8]"
C        1.20470945       0.33326647      -0.69040885
C        0.22785336       0.91400512       0.77495429
C       -1.12620939       0.43007360       0.20006044
C       -0.76780032      -1.00869348      -0.21417519
C        0.72088541      -0.90623462      -0.22711075
O        0.73251176       0.15319109       1.69871440
H        0.70420308       0.80622472      -1.53047310
H        2.27003880       0.51798354      -0.62608900
H        0.27818550       2.01048314       0.91458356
H       -1.89292889       0.47190764       0.97521390
H       -1.45457398       1.04567105      -0.63965280
H       -1.10177302      -1.76042326       0.49718501
H       -1.14929735      -1.27454440      -1.20435395
H        1.35419559      -1.73291061       0.07155204
14
Frame=3 idx=005582 GeodesicLength=0.15475095705996805 rxn_smarts="[C:1]1([H:7])([H:8])[C@:2]2([H:9])[C:3]([H:10])([H:11])[C:4]([H:12])([H:13])[C@@:5]1([H:14])[O:6]2>>[C:1](=[C:5]([C:4]([C:3]([C:2](=[O:6])[H:9])([H:10])[H:11])([H:12])[H:13])[H:14])([H:7])[H:8]"
C        1.21094527       0.33057738      -0.69436896
C        0.21912397       0.92249054       0.78010873
C       -1.12810862       0.43232326       0.19882914
C       -0.76528332      -1.00721992      -0.20873495
C        0.72538640      -0.90655351      -0.22356220
O        0.72592721       0.14871870       1.69411155
H        0.71135932       0.81000965      -1.53128100
H        2.27773889       0.50985952      -0.63629791
H        0.26475821       2.01666644       0.93332273
H       -1.90064030       0.47561679       0.96808778
H       -1.45139513       1.04532937      -0.64476704
H       -1.09658420      -1.75340571       0.51013145
H       -1.14957581      -1.28067472      -1.19542034
H        1.35634812      -1.74373778       0.04984101
14
Frame=4 idx=005582 GeodesicLength=0.20627848480284006 rxn_smarts="[C:1]1([H:7])([H:8])[C@:2]2([H:9])[C:3]([H:10])([H:11])[C:4]([H:12])([H:13])[C@@:5]1([H:14])[O:6]2>>[C:1](=[C:5]([C:4]([C:3]([C:2](=[O:6])[H:9])([H:10])[H:11])([H:12])[H:13])[H:14])([H:7])[H:8]"
C        1.21730737       0.32770498      -0.69836454
C        0.21028032       0.93109482       0.78535858
C       -1.12995644       0.43455293       0.19762638
C       -0.76265334      -1.00570302      -0.20325775
C        0.73003437      -0.90692178      -0.21975322
O        0.71950971       0.14472190       1.68948085
H        0.71864032       0.81377186      -1.53196616
H        2.28554478       0.50137781      -0.64682551
H        0.25079016       2.02277884       0.95233453
H       -1.90832040       0.47917946       0.96088728
H       -1.44810627       1.04495277      -0.64982860
H       -1.09135685      -1.74630816       0.52299036
H       -1.14967186      -1.28674663      -1.18640357
H        1.35795814      -1.75445577       0.02772136
14
Frame=5 idx=005582 GeodesicLength=0.2577600599279897 rxn_smarts="[C:1]1([H:7])([H:8])[C@:2]2([H:9])[C:3]([H:10])([H:11])[C:4]([H:12])([H:13])[C@@:5]1([H:14])[O:6]2>>[C:1](=[C:5]([C:4]([C:3]([C:2](=[O:6])[H:9])([H:10])[H:11])([H:12])[H:13])[H:14])([H:7])[H:8]"
C        1.22379759       0.32463994      -0.70240109
C        0.20132010       0.93981867       0.79070223
C       -1.13175022       0.43676079       0.19645460
C       -0.75990387      -1.00414275      -0.19774812
C        0.73484049      -0.90734769      -0.21568113
O        0.71326747       0.14119823       1.68483093
H        0.72604682       0.81750765      -1.53252886
H        2.29345333       0.49253418      -0.65767691
H        0.23627894       2.02881267       0.97160673
H       -1.91596277       0.48258624       0.95361845
H       -1.44470854       1.04454400      -0.65483055
H       -1.08608991      -1.73913762       0.53575197
H       -1.14958119      -1.29275164      -1.17731217
H        1.35899174      -1.76502267       0.00521392
14
Frame=6 idx=005582 GeodesicLength=0.30919220913029993 rxn_smarts="[C:1]1([H:7])([H:8])[C@:2]2([H:9])[C:3]([H:10])([H:11])[C:4]([H:12])([H:13])[C@@:5]1([H:14])[O:6]2>>[C:1](=[C:5]([C:4]([C:3]([C:2](=[O:6])[H:9])([H:10])[H:11])([H:12])[H:13])[H:14])([H:7])[H:8]"
C        1.23041992       0.32139356      -0.70650390
C        0.19224082       0.94864927       0.79614806
C       -1.13348625       0.43894530       0.19531458
C       -0.75702808      -1.00253562      -0.19221228
C        0.73982213      -0.90782621      -0.21135680
O        0.70718311       0.13816773       1.68017497
H        0.73357383       0.82122112      -1.53296851
H        2.30146892       0.48336765      -0.66888670
H        0.22124666       2.03470850       0.99113534
H       -1.92355611       0.48582831       0.94628020
H       -1.44120252       1.04410870      -0.65976769
H       -1.08078492      -1.73189728       0.54840878
H       -1.14929705      -1.29868767      -1.16815210
H        1.35939953      -1.77544337      -0.01761396
14
Frame=7 idx=005582 GeodesicLength=0.3605657020562808 rxn_smarts="[C:1]1([H:7])([H:8])[C@:2]2([H:9])[C:3]([H:10])([H:11])[C:4]([H:12])([H:13])[C@@:5]1([H:14])[O:6]2>>[C:1](=[C:5]([C:4]([C:3]([C:2](=[O:6])[H:9])([H:10])[H:11])([H:12])[H:13])[H:14])([H:7])[H:8]"
C        1.23715311       0.31790438      -0.71065033
C        0.18302135       0.95761403       0.80168929
C       -1.13517276       0.44110915       0.19420954
C       -0.75404619      -1.00087742      -0.18666302
C        0.74492924      -0.90836818      -0.20677818
O        0.70131240       0.13558192       1.67543779
H        0.74123640       0.82493046      -1.53325184
H        2.30950991       0.47372135      -0.68041746
H        0.20567326       2.04053925       1.01090874
H       -1.93110648       0.48890122       0.93888784
H       -1.43759181       1.04365274      -0.66462751
H       -1.07544943      -1.72459340       0.56093154
H       -1.14884573      -1.30451632      -1.15894730
H        1.35937671      -1.78559916      -0.04072910
14
Frame=8 idx=005582 GeodesicLength=0.4119232272428457 rxn_smarts="[C:1]1([H:7])([H:8])[C@:2]2([H:9])[C:3]([H:10])([H:11])[C:4]([H:12])([H:13])[C@@:5]1([H:14])[O:6]2>>[C:1](=[C:5]([C:4]([C:3]([C:2](=[O:6])[H:9])([H:10])[H:11])([H:12])[H:13])[H:14])([H:7])[H:8]"
C        1.24402567       0.31421134      -0.71487519
C        0.17366993       0.96668998       0.80733635
C       -1.13680132       0.44325376       0.19313412
C       -0.75093062      -0.99917659      -0.18108295
C        0.75022794      -0.90898511      -0.20195472
O        0.69561823       0.13346313       1.67069412
H        0.74904926       0.82862739      -1.53340196
H        2.31764906       0.46371562      -0.69232655
H        0.18954995       2.04622591       1.03094413
H       -1.93862347       0.49181195       0.93141771
H       -1.43386109       1.04317978      -0.66942494
H       -1.07007230      -1.71722967       0.57336461
H       -1.14820456      -1.31027847      -1.14966685
H        1.35870332      -1.79550902      -0.06415786
14
Frame=9 idx=005582 GeodesicLength=0.4631628479398866 rxn_smarts="[C:1]1([H:7])([H:8])[C@:2]2([H:9])[C:3]([H:10])([H:11])[C:4]([H:12])([H:13])[C@@:5]1([H:14])[O:6]2>>[C:1](=[C:5]([C:4]([C:3]([C:2](=[O:6])[H:9])([H:10])[H:11])([H:12])[H:13])[H:14])([H:7])[H:8]"
C        1.25103400       0.31032669      -0.71916903
C        0.16419495       0.97585860       0.81307333
C       -1.13835476       0.44536996       0.19207583
C       -0.74766806      -0.99742368      -0.17548304
C        0.75573240      -0.90965492      -0.19690419
O        0.69010944       0.13182144       1.66592282
H        0.75697007       0.83232768      -1.53341803
H        2.32589097       0.45333636      -0.70462117
H        0.17288086       2.05171304       1.05126803
H       -1.94606644       0.49453775       0.92385189
H       -1.43000866       1.04267611      -0.67416736
H       -1.06462198      -1.70978150       0.58569756
H       -1.14738263      -1.31597870      -1.14031292
H        1.35728986      -1.80512883      -0.08781372
14
Frame=10 idx=005582 GeodesicLength=0.5143667962875331 rxn_smarts="[C:1]1([H:7])([H:8])[C@:2]2([H:9])[C:3]([H:10])([H:11])[C:4]([H:12])([H:13])[C@@:5]1([H:14])[O:6]2>>[C:1](=[C:5]([C:4]([C:3]([C:2](=[O:6])[H:9])([H:10])[H:11])([H:12])[H:13])[H:14])([H:7])[H:8]"
C        1.25814382       0.30619037      -0.72355525
C        0.15457017       0.98514221       0.81892563
C       -1.13983810       0.44746792       0.19104094
C       -0.74427437      -0.99561309      -0.16986307
C        0.76138654      -0.91040634      -0.19163783
O        0.68482129       0.13058683       1.66109710
H        0.76506526       0.83602984      -1.53327008
H        2.33412446       0.44249237      -0.71731902
H        0.15562685       2.05704921       1.07187582
H       -1.95347015       0.49710615       0.91619167
H       -1.42599969       1.04215613      -0.67884753
H       -1.05911791      -1.70225508       0.59793296
H       -1.14638339      -1.32157578      -1.13089379
H        1.35534519      -1.81437074      -0.11167755
14
Frame=11 idx=005582 GeodesicLength=0.5655287049976085 rxn_smarts="[C:1]1([H:7])([H:8])[C@:2]2([H:9])[C:3]([H:10])([H:11])[C:4]([H:12])([H:13])[C@@:5]1([H:14])[O:6]2>>[C:1](=[C:5]([C:4]([C:3]([C:2](=[O:6])[H:9])([H:10])[H:11])([H:12])[H:13])[H:14])([H:7])[H:8]"
C        1.26539521       0.30183782      -0.72804222
C        0.14480144       0.99452134       0.82488142
C       -1.14125547       0.44954911       0.19001994
C       -0.74074215      -0.99375576      -0.16422726
C        0.76724704      -0.91123728      -0.18618038
O        0.67973432       0.12980194       1.65621002
H        0.77330502       0.83976799      -1.53297392
H        2.34243966       0.43121729      -0.73044699
H        0.13781452       2.06215831       1.09280250
H       -1.96082543       0.49949968       0.90842789
H       -1.42186337       1.04163312      -0.68347387
H       -1.05354875      -1.69465934       0.61007620
H       -1.14522689      -1.32711669      -1.12139847
H        1.35272485      -1.82321753      -0.13567486
14
Frame=12 idx=005582 GeodesicLength=0.6166417712424852 rxn_smarts="[C:1]1([H:7])([H:8])[C@:2]2([H:9])[C:3]([H:10])([H:11])[C:4]([H:12])([H:13])[C@@:5]1([H:14])[O:6]2>>[C:1](=[C:5]([C:4]([C:3]([C:2](=[O:6])[H:9])([H:10])[H:11])([H:12])[H:13])[H:14])([H:7])[H:8]"
C        1.27276607       0.29725428      -0.73264378
C        0.13488397       1.00399351       0.83094482
C       -1.14259373       0.45161545       0.18900803
C       -0.73706724      -0.99183827      -0.15857979
C        0.77329524      -0.91214792      -0.18055748
O        0.67487590       0.12942078       1.65125201
H        0.78171061       0.84355251      -1.53251725
H        2.35078165       0.41947092      -0.74404989
H        0.11939396       2.06701877       1.11406761
H       -1.96812916       0.50172611       0.90054325
H       -1.41756897       1.04110742      -0.68804826
H       -1.04789946      -1.68697638       0.62213194
H       -1.14391644      -1.33257545      -1.11182792
H        1.34946759      -1.83162173      -0.15972328
14
Frame=13 idx=005582 GeodesicLength=0.6677303578184952 rxn_smarts="[C:1]1([H:7])([H:8])[C@:2]2([H:9])[C:3]([H:10])([H:11])[C:4]([H:12])([H:13])[C@@:5]1([H:14])[O:6]2>>[C:1](=[C:5]([C:4]([C:3]([C:2](=[O:6])[H:9])([H:10])[H:11])([H:12])[H:13])[H:14])([H:7])[H:8]"
C        1.28026135       0.29244274      -0.73738101
C        0.12481541       1.01355830       0.83711655
C       -1.14385262       0.45367444       0.18799653
C       -0.73325351      -0.98986144      -0.15292668
C        0.77953506      -0.91314069      -0.17480419
O        0.67025925       0.12943959       1.64619360
H        0.79028841       0.84741921      -1.53189596
H        2.35915285       0.40722302      -0.75817923
H        0.10034067       2.07158928       1.13572896
H       -1.97538613       0.50379037       0.89252103
H       -1.41311109       1.04059388      -0.69257771
H       -1.04216681      -1.67920337       0.63410414
H       -1.14247276      -1.33796529      -1.10217709
H        1.34558991      -1.83956003      -0.18371896
14
Frame=14 idx=005582 GeodesicLength=0.7187697179594985 rxn_smarts="[C:1]1([H:7])([H:8])[C@:2]2([H:9])[C:3]([H:10])([H:11])[C:4]([H:12])([H:13])[C@@:5]1([H:14])[O:6]2>>[C:1](=[C:5]([C:4]([C:3]([C:2](=[O:6])[H:9])([H:10])[H:11])([H:12])[H:13])[H:14])([H:7])[H:8]"
C        1.28787440       0.28739777      -0.74226838
C        0.11458150       1.02319621       0.84340689
C       -1.14503190       0.45572296       0.18698434
C       -0.72929952      -0.98781744      -0.14727578
C        0.78596417      -0.91421015      -0.16893607
O        0.66589198       0.12986250       1.64102294
H        0.79903957       0.85137553      -1.53108358
H        2.36752617       0.39447049      -0.77284726
H        0.08067929       2.07582285       1.15775908
H       -1.98258687       0.50568269       0.88435443
H       -1.40848789       1.04009629      -0.69705556
H       -1.03634676      -1.67133136       0.64598315
H       -1.14090073      -1.34327240      -1.09245395
H        1.34109659      -1.84699596      -0.20759025
14
Frame=15 idx=005582 GeodesicLength=0.7697921740625183 rxn_smarts="[C:1]1([H:7])([H:8])[C@:2]2([H:9])[C:3]([H:10])([H:11])[C:4]([H:12])([H:13])[C@@:5]1([H:14])[O:6]2>>[C:1](=[C:5]([C:4]([C:3]([C:2](=[O:6])[H:9])([H:10])[H:11])([H:12])[H:13])[H:14])([H:7])[H:8]"
C        1.29560151       0.28211953      -0.74733179
C        0.10417823       1.03291126       0.84981763
C       -1.14613126       0.45777184       0.18596624
C       -0.72521164      -0.98570383      -0.14163828
C        0.79257536      -0.91535987      -0.16299808
O        0.66179154       0.13066221       1.63571114
H        0.80797743       0.85545954      -1.53008716
H        2.37588561       0.38117423      -0.78811697
H        0.06037572       2.07968529       1.18021470
H       -1.98973926       0.50741018       0.87603590
H       -1.40368817       1.03963637      -0.70148541
H       -1.03043574      -1.66335960       0.65776807
H       -1.13922027      -1.34849517      -1.08266205
H        1.33604093      -1.85391198      -0.23119393
14
Frame=16 idx=005582 GeodesicLength=0.8208014709158039 rxn_smarts="[C:1]1([H:7])([H:8])[C@:2]2([H:9])[C:3]([H:10])([H:11])[C:4]([H:12])([H:13])[C@@:5]1([H:14])[O:6]2>>[C:1](=[C:5]([C:4]([C:3]([C:2](=[O:6])[H:9])([H:10])[H:11])([H:12])[H:13])[H:14])([H:7])[H:8]"
C        1.30343767       0.27660631      -0.75258924
C        0.09359691       1.04269900       0.85635519
C       -1.14714686       0.45982839       0.18493273
C       -0.72099145      -0.98351198      -0.13601736
C        0.79936336      -0.91658344      -0.15701535
O        0.65797202       0.13183738       1.63023394
H        0.81711321       0.85969877      -1.52888793
H        2.38420684       0.36729687      -0.80404626
H        0.03940111       2.08311953       1.20313938
H       -1.99684504       0.50898056       0.86753883
H       -1.39869845       1.03922624      -0.70587364
H       -1.02442358      -1.65527290       0.66946451
H       -1.13744432      -1.35363259      -1.07279478
H        1.33045857      -1.86029213      -0.25444002
