16
Frame=0 idx=010736 GeodesicLength=0.0 rxn_smarts="[N:1]([C:2](=[O:3])[C:4]([C:5]([C:6]([O:7][H:16])([H:14])[H:15])([H:12])[H:13])([H:10])[H:11])([H:8])[H:9]>>[H:12][H:15].[N:1]([C:2](=[O:3])[C:4](/[C:5](=[C:6](\[O:7][H:16])[H:14])[H:13])([H:10])[H:11])([H:8])[H:9]"
N        1.58117483       0.39870749       1.40120083
C        1.30828101      -0.89093164       1.08216258
O        1.64952575      -1.82586621       1.77563666
C        0.53911292      -1.07654918      -0.22143812
C       -0.84213202      -0.45737396      -0.21110393
C       -1.07977768       0.78509464      -0.88972554
O       -0.10302830       1.74167986      -0.73157249
H        2.03304168       0.58320731       2.27842752
H        1.20454548       1.15776466       0.85953509
H        1.13152623      -0.68458326      -1.05197787
H        0.43809341      -2.15347362      -0.36119775
H       -2.36482757      -0.47681184      -0.66591242
H       -1.39120577      -0.67954501       0.69225466
H       -1.50669995       0.82724101      -1.88249752
H       -2.55443080       0.44765671      -0.56564060
H       -0.04319927       2.30378308      -1.50815105
16
Frame=1 idx=010736 GeodesicLength=0.05623396616940683 rxn_smarts="[N:1]([C:2](=[O:3])[C:4]([C:5]([C:6]([O:7][H:16])([H:14])[H:15])([H:12])[H:13])([H:10])[H:11])([H:8])[H:9]>>[H:12][H:15].[N:1]([C:2](=[O:3])[C:4](/[C:5](=[C:6](\[O:7][H:16])[H:14])[H:13])([H:10])[H:11])([H:8])[H:9]"
N        1.57556157       0.39405349       1.41182407
C        1.31663464      -0.89468181       1.07836673
O        1.67899517      -1.83343024       1.75591822
C        0.53627152      -1.07636746      -0.21903123
C       -0.84163358      -0.44966590      -0.20569412
C       -1.07695788       0.78675970      -0.89518901
O       -0.09878091       1.74425236      -0.74393807
H        2.03357745       0.57354806       2.28686806
H        1.18542451       1.15465135       0.88200071
H        1.12825645      -0.68828145      -1.05179461
H        0.43017967      -2.15278840      -0.35847222
H       -2.37421244      -0.48683113      -0.65719262
H       -1.38273840      -0.64927951       0.70829264
H       -1.49226624       0.81362113      -1.89422243
H       -2.56634972       0.45145126      -0.58148148
H       -0.05196181       2.31298856      -1.51625465
16
Frame=2 idx=010736 GeodesicLength=0.1123666172310866 rxn_smarts="[N:1]([C:2](=[O:3])[C:4]([C:5]([C:6]([O:7][H:16])([H:14])[H:15])([H:12])[H:13])([H:10])[H:11])([H:8])[H:9]>>[H:12][H:15].[N:1]([C:2](=[O:3])[C:4](/[C:5](=[C:6](\[O:7][H:16])[H:14])[H:13])([H:10])[H:11])([H:8])[H:9]"
N        1.56994389       0.38936536       1.42224119
C        1.32478170      -0.89816186       1.07453148
O        1.70835527      -1.84010397       1.73590605
C        0.53332926      -1.07636547      -0.21653758
C       -0.84115009      -0.44203371      -0.20051870
C       -1.07394907       0.78843691      -0.90059391
O       -0.09415024       1.74658372      -0.75612084
H        2.03393483       0.56413177       2.29506267
H        1.16653388       1.15112024       0.90413656
H        1.12483381      -0.69248749      -1.05169127
H        0.42213937      -2.15232063      -0.35514377
H       -2.38373811      -0.49685677      -0.64799759
H       -1.37414193      -0.61914860       0.72343361
H       -1.47758796       0.80027094      -1.90550754
H       -2.57820214       0.45497119      -0.59777859
H       -0.06093249       2.32259837      -1.52342178
16
Frame=3 idx=010736 GeodesicLength=0.16840616874018374 rxn_smarts="[N:1]([C:2](=[O:3])[C:4]([C:5]([C:6]([O:7][H:16])([H:14])[H:15])([H:12])[H:13])([H:10])[H:11])([H:8])[H:9]>>[H:12][H:15].[N:1]([C:2](=[O:3])[C:4](/[C:5](=[C:6](\[O:7][H:16])[H:14])[H:13])([H:10])[H:11])([H:8])[H:9]"
N        1.56434502       0.38464624       1.43244458
C        1.33276110      -0.90137586       1.07062417
O        1.73763961      -1.84589252       1.71555019
C        0.53028706      -1.07652332      -0.21397397
C       -0.84068155      -0.43446184      -0.19555381
C       -1.07076486       0.79013761      -0.90593139
O       -0.08915614       1.74869764      -0.76813853
H        2.03394927       0.55493472       2.30311853
H        1.14791756       1.14719335       0.92591620
H        1.12123598      -0.69717481      -1.05169145
H        0.41397531      -2.15204831      -0.35123654
H       -2.39341625      -0.50687766      -0.63827057
H       -1.36540160      -0.58915850       0.73772783
H       -1.46269118       0.78719687      -1.91635580
H       -2.58999455       0.45819856      -0.61452844
H       -0.07000479       2.33250782      -1.52970101
16
Frame=4 idx=010736 GeodesicLength=0.2243612996862966 rxn_smarts="[N:1]([C:2](=[O:3])[C:4]([C:5]([C:6]([O:7][H:16])([H:14])[H:15])([H:12])[H:13])([H:10])[H:11])([H:8])[H:9]>>[H:12][H:15].[N:1]([C:2](=[O:3])[C:4](/[C:5](=[C:6](\[O:7][H:16])[H:14])[H:13])([H:10])[H:11])([H:8])[H:9]"
N        1.55878364       0.37990092       1.44243290
C        1.34061127      -0.90432336       1.06661107
O        1.76687192      -1.85079657       1.69480311
C        0.52714724      -1.07681660      -0.21135799
C       -0.84022884      -0.42693457      -0.19077804
C       -1.06742406       0.79187482      -0.91119170
O       -0.08382846       1.75062365      -0.78000118
H        2.03348091       0.54591841       2.31114162
H        1.12961211       1.14289707       0.94732336
H        1.11744173      -0.70230759      -1.05181746
H        0.40569519      -2.15194492      -0.34677726
H       -2.40325919      -0.51688494      -0.62795525
H       -1.35650341      -0.55931946       0.75122165
H       -1.44760945       0.77440811      -1.92676836
H       -2.60173777       0.46110769      -0.63172560
H       -0.07905283       2.34259735      -1.53516087
16
Frame=5 idx=010736 GeodesicLength=0.2802373999425858 rxn_smarts="[N:1]([C:2](=[O:3])[C:4]([C:5]([C:6]([O:7][H:16])([H:14])[H:15])([H:12])[H:13])([H:10])[H:11])([H:8])[H:9]>>[H:12][H:15].[N:1]([C:2](=[O:3])[C:4](/[C:5](=[C:6](\[O:7][H:16])[H:14])[H:13])([H:10])[H:11])([H:8])[H:9]"
N        1.55329137       0.37513106       1.45219311
C        1.34836756      -0.90700383       1.06245973
O        1.79606726      -1.85481648       1.67362017
C        0.52391001      -1.07722649      -0.20870119
C       -0.83978863      -0.41943281      -0.18616698
C       -1.06393631       0.79365409      -0.91637622
O       -0.07818814       1.75237910      -0.79172965
H        2.03238576       0.53702921       2.31923875
H        1.11166720       1.13825512       0.96832847
H        1.11342910      -0.70786800      -1.05208894
H        0.39729790      -2.15198754      -0.34177804
H       -2.41327183      -0.52686870      -0.61698516
H       -1.34742855      -0.52961719       0.76396721
H       -1.43235359       0.76189316      -1.93675982
H       -2.61343237       0.46366812      -0.64938786
H       -0.08801673       2.35281121      -1.53983360
16
Frame=6 idx=010736 GeodesicLength=0.33601133139709916 rxn_smarts="[N:1]([C:2](=[O:3])[C:4]([C:5]([C:6]([O:7][H:16])([H:14])[H:15])([H:12])[H:13])([H:10])[H:11])([H:8])[H:9]>>[H:12][H:15].[N:1]([C:2](=[O:3])[C:4](/[C:5](=[C:6](\[O:7][H:16])[H:14])[H:13])([H:10])[H:11])([H:8])[H:9]"
N        1.54783002       0.37034998       1.46176426
C        1.35604118      -0.90939747       1.05814729
O        1.82500273      -1.85794856       1.65210527
C        0.52060227      -1.07769306      -0.20604103
C       -0.83936535      -0.41196281      -0.18173345
C       -1.06035564       0.79549947      -0.92144025
O       -0.07233915       1.75403328      -0.80324546
H        2.03082819       0.52823582       2.32735774
H        1.09407879       1.13331097       0.98895803
H        1.10921370      -0.71372385      -1.05251133
H        0.38887020      -2.15211258      -0.33633933
H       -2.42346211      -0.53685530      -0.60536140
H       -1.33818529      -0.50016669       0.77595609
H       -1.41701797       0.74972130      -1.94628715
H       -2.62511321       0.46580892      -0.66745748
H       -0.09662835       2.36290058      -1.54387180
16
Frame=7 idx=010736 GeodesicLength=0.39170375867586427 rxn_smarts="[N:1]([C:2](=[O:3])[C:4]([C:5]([C:6]([O:7][H:16])([H:14])[H:15])([H:12])[H:13])([H:10])[H:11])([H:8])[H:9]>>[H:12][H:15].[N:1]([C:2](=[O:3])[C:4](/[C:5](=[C:6](\[O:7][H:16])[H:14])[H:13])([H:10])[H:11])([H:8])[H:9]"
N        1.54241809       0.36555414       1.47115681
C        1.36365756      -0.91150419       1.05365618
O        1.85366938      -1.86021339       1.63024994
C        0.51722566      -1.07819529      -0.20338383
C       -0.83896131      -0.40450773      -0.17745769
C       -1.05669882       0.79742078      -0.92639040
O       -0.06631529       1.75561669      -0.81455417
H        2.02878023       0.51948210       2.33555525
H        1.07687081       1.12808904       1.00921792
H        1.10478395      -0.71984336      -1.05309144
H        0.38041758      -2.15229681      -0.33047884
H       -2.43383623      -0.54684445      -0.59303595
H       -1.32877111      -0.47096141       0.78723547
H       -1.40161331       0.73788513      -1.95537665
H       -2.63679141       0.46748628      -0.68596711
H       -0.10483579       2.37283247      -1.54733549
16
Frame=8 idx=010736 GeodesicLength=0.4473053509754554 rxn_smarts="[N:1]([C:2](=[O:3])[C:4]([C:5]([C:6]([O:7][H:16])([H:14])[H:15])([H:12])[H:13])([H:10])[H:11])([H:8])[H:9]>>[H:12][H:15].[N:1]([C:2](=[O:3])[C:4](/[C:5](=[C:6](\[O:7][H:16])[H:14])[H:13])([H:10])[H:11])([H:8])[H:9]"
N        1.53704747       0.36074019       1.48039347
C        1.37122584      -0.91331631       1.04897141
O        1.88200683      -1.86162424       1.60807160
C        0.51378023      -1.07870556      -0.20073702
C       -0.83857729      -0.39705440      -0.17332925
C       -1.05297935       0.79942390      -0.93122460
O       -0.06015442       1.75715581      -0.82563903
H        2.02630569       0.51072238       2.34382757
H        1.06003987       1.12261198       1.02913259
H        1.10013016      -0.72618253      -1.05382519
H        0.37195015      -2.15250634      -0.32422517
H       -2.44439062      -0.55683940      -0.57998211
H       -1.31919092      -0.44201083       0.79783097
H       -1.38614864       0.72638162      -1.96403823
H       -2.64846617       0.46864401      -0.70494168
H       -0.11257883       2.38255970      -1.55028534
16
Frame=9 idx=010736 GeodesicLength=0.5028294653343882 rxn_smarts="[N:1]([C:2](=[O:3])[C:4]([C:5]([C:6]([O:7][H:16])([H:14])[H:15])([H:12])[H:13])([H:10])[H:11])([H:8])[H:9]>>[H:12][H:15].[N:1]([C:2](=[O:3])[C:4](/[C:5](=[C:6](\[O:7][H:16])[H:14])[H:13])([H:10])[H:11])([H:8])[H:9]"
N        1.53168564       0.35590505       1.48951913
C        1.37874821      -0.91482166       1.04408840
O        1.90977086      -1.86222325       1.58573129
C        0.51029426      -1.07917787      -0.19812793
C       -0.83821582      -0.38960938      -0.16936148
C       -1.04923896       0.80153010      -0.93591690
O       -0.05394150       1.75871211      -0.83643164
H        2.02365274       0.50194748       2.35206593
H        1.04356877       1.11690793       1.04874653
H        1.09528470      -0.73262852      -1.05470732
H        0.36354663      -2.15269384      -0.31767070
H       -2.45512397      -0.56687708      -0.56621610
H       -1.30946715      -0.41341284       0.80773969
H       -1.37068885       0.71526511      -1.97225645
H       -2.66016748       0.46921712      -0.72435100
H       -0.11970809       2.39195955      -1.55285146
16
Frame=10 idx=010736 GeodesicLength=0.5582023474384906 rxn_smarts="[N:1]([C:2](=[O:3])[C:4]([C:5]([C:6]([O:7][H:16])([H:14])[H:15])([H:12])[H:13])([H:10])[H:11])([H:8])[H:9]>>[H:12][H:15].[N:1]([C:2](=[O:3])[C:4](/[C:5](=[C:6](\[O:7][H:16])[H:14])[H:13])([H:10])[H:11])([H:8])[H:9]"
N        1.52625100       0.35103163       1.49861294
C        1.38614626      -0.91603505       1.03908021
O        1.93666602      -1.86210714       1.56347920
C        0.50676836      -1.07958624      -0.19554414
C       -0.83790859      -0.38219340      -0.16558078
C       -1.04551027       0.80375285      -0.94046536
O       -0.04774475       1.76033635      -0.84684030
H        2.02149849       0.49324203       2.35989537
H        1.02734214       1.11099083       1.06818201
H        1.09029099      -0.73909323      -1.05566790
H        0.35525549      -2.15282683      -0.31088223
H       -2.46602490      -0.57700032      -0.55183811
H       -1.29969014      -0.38525251       0.81694557
H       -1.35521751       0.70458410      -1.98006612
H       -2.67190590       0.46907873      -0.74430162
H       -0.12621668       2.40107819      -1.55500873
16
Frame=11 idx=010736 GeodesicLength=0.6134820623741782 rxn_smarts="[N:1]([C:2](=[O:3])[C:4]([C:5]([C:6]([O:7][H:16])([H:14])[H:15])([H:12])[H:13])([H:10])[H:11])([H:8])[H:9]>>[H:12][H:15].[N:1]([C:2](=[O:3])[C:4](/[C:5](=[C:6](\[O:7][H:16])[H:14])[H:13])([H:10])[H:11])([H:8])[H:9]"
N        1.52084755       0.34611650       1.50759298
C        1.39352737      -0.91693330       1.03382575
O        1.96300789      -1.86122051       1.54102131
C        0.50320286      -1.07993628      -0.19301185
C       -0.83760097      -0.37474963      -0.16193304
C       -1.04174318       0.80608454      -0.94488402
O       -0.04149217       1.76198742      -0.85700643
H        2.01896248       0.48444578       2.36782672
H        1.01153215       1.10486220       1.08729264
H        1.08508531      -0.74565485      -1.05678804
H        0.34701601      -2.15290637      -0.30381921
H       -2.47708016      -0.58712440      -0.53664646
H       -1.28974203      -0.35740049       0.82554256
H       -1.33975361       0.69425793      -1.98745815
H       -2.68362006       0.46829310      -0.76468830
H       -0.13214944       2.40987835      -1.55686648
16
Frame=12 idx=010736 GeodesicLength=0.6687206941145173 rxn_smarts="[N:1]([C:2](=[O:3])[C:4]([C:5]([C:6]([O:7][H:16])([H:14])[H:15])([H:12])[H:13])([H:10])[H:11])([H:8])[H:9]>>[H:12][H:15].[N:1]([C:2](=[O:3])[C:4](/[C:5](=[C:6](\[O:7][H:16])[H:14])[H:13])([H:10])[H:11])([H:8])[H:9]"
N        1.51544741       0.34113429       1.51653073
C        1.40087486      -0.91753658       1.02837675
O        1.98868913      -1.85966858       1.51851682
C        0.49959997      -1.08021161      -0.19051500
C       -0.83732895      -0.36728154      -0.15842241
C       -1.03797790       0.80855079      -0.94919083
O       -0.03523435       1.76372908      -0.86688515
H        2.01647556       0.47558392       2.37566037
H        0.99606237       1.09853352       1.10618779
H        1.07969932      -0.75225102      -1.05802869
H        0.33885054      -2.15291909      -0.29650607
H       -2.48831355      -0.59728320      -0.52068436
H       -1.27970401      -0.32989683       0.83354518
H       -1.32429193       0.68432508      -1.99448655
H       -2.69535749       0.46676137      -0.78562181
H       -0.13749099       2.41843040      -1.55847677
16
Frame=13 idx=010736 GeodesicLength=0.7238468027717077 rxn_smarts="[N:1]([C:2](=[O:3])[C:4]([C:5]([C:6]([O:7][H:16])([H:14])[H:15])([H:12])[H:13])([H:10])[H:11])([H:8])[H:9]>>[H:12][H:15].[N:1]([C:2](=[O:3])[C:4](/[C:5](=[C:6](\[O:7][H:16])[H:14])[H:13])([H:10])[H:11])([H:8])[H:9]"
N        1.50997209       0.33606495       1.52548152
C        1.40811623      -0.91784397       1.02276679
O        2.01353519      -1.85750895       1.49607538
C        0.49593917      -1.08039325      -0.18804482
C       -0.83710538      -0.35978770      -0.15505724
C       -1.03421321       0.81114902      -0.95338212
O       -0.02900172       1.76556982      -0.87640845
H        2.01447656       0.46674105       2.38312617
H        0.98082204       1.09200091       1.12497118
H        1.07413180      -0.75884530      -1.05934318
H        0.33075491      -2.15283333      -0.28898312
H       -2.49968401      -0.60749639      -0.50400771
H       -1.26962667      -0.30275836       0.84094764
H       -1.30877981       0.67478423      -2.00116673
H       -2.70707384       0.46439087      -0.80719072
H       -0.14226336       2.42676639      -1.55978457
16
Frame=14 idx=010736 GeodesicLength=0.7789320475948845 rxn_smarts="[N:1]([C:2](=[O:3])[C:4]([C:5]([C:6]([O:7][H:16])([H:14])[H:15])([H:12])[H:13])([H:10])[H:11])([H:8])[H:9]>>[H:12][H:15].[N:1]([C:2](=[O:3])[C:4](/[C:5](=[C:6](\[O:7][H:16])[H:14])[H:13])([H:10])[H:11])([H:8])[H:9]"
N        1.50455637       0.33090935       1.53435914
C        1.41537821      -0.91783577       1.01688306
O        2.03788804      -1.85469192       1.47341921
C        0.49222719      -1.08048671      -0.18561932
C       -0.83689229      -0.35221119      -0.15178364
C       -1.03042553       0.81389099      -0.95747988
O       -0.02273079       1.76749731      -0.88572705
H        2.01209648       0.45769047       2.39076577
H        0.96599762       1.08527939       1.14350316
H        1.06832608      -0.76551176      -1.06081568
H        0.32268010      -2.15265482      -0.28118677
H       -2.51120251      -0.61766843      -0.48638988
H       -1.25940383      -0.27585242       0.84785317
H       -1.29325013       0.66558284      -2.00750940
H       -2.71874319       0.46118576      -0.82933788
H       -0.14650182       2.43487691      -1.56093403
16
Frame=15 idx=010736 GeodesicLength=0.8339899963608502 rxn_smarts="[N:1]([C:2](=[O:3])[C:4]([C:5]([C:6]([O:7][H:16])([H:14])[H:15])([H:12])[H:13])([H:10])[H:11])([H:8])[H:9]>>[H:12][H:15].[N:1]([C:2](=[O:3])[C:4](/[C:5](=[C:6](\[O:7][H:16])[H:14])[H:13])([H:10])[H:11])([H:8])[H:9]"
N        1.49914814       0.32564074       1.54322499
C        1.42261987      -0.91752359       1.01076965
O        2.06163601      -1.85129130       1.45066678
C        0.48845536      -1.08048438      -0.18322123
C       -0.83671290      -0.34455288      -0.14861164
C       -1.02662718       0.81678828      -0.96150000
O       -0.01644491       1.76954177      -0.89480720
H        2.00973196       0.44848425       2.39836423
H        0.95151082       1.07837099       1.16187015
H        1.06229951      -0.77222029      -1.06240361
H        0.31462873      -2.15237469      -0.27312718
H       -2.52286888      -0.62781338      -0.46787895
H       -1.24910212      -0.24919983       0.85425642
H       -1.27767423       0.65673812      -2.01354955
H       -2.73036008       0.45705434      -0.85215715
H       -0.15024010       2.44284186      -1.56189572
16
Frame=16 idx=010736 GeodesicLength=0.8889845523016693 rxn_smarts="[N:1]([C:2](=[O:3])[C:4]([C:5]([C:6]([O:7][H:16])([H:14])[H:15])([H:12])[H:13])([H:10])[H:11])([H:8])[H:9]>>[H:12][H:15].[N:1]([C:2](=[O:3])[C:4](/[C:5](=[C:6](\[O:7][H:16])[H:14])[H:13])([H:10])[H:11])([H:8])[H:9]"
N        1.49368446       0.32023294       1.55212812
C        1.42979340      -0.91690397       1.00444702
O        2.08464080      -1.84735858       1.42791032
C        0.48460996      -1.08036932      -0.18084737
C       -0.83657469      -0.33680883      -0.14555083
C       -1.02281555       0.81984164      -0.96544377
O       -0.01016085       1.77170955      -0.90360750
H        2.00769690       0.43919275       2.40572662
H        0.93729730       1.07126519       1.18014195
H        1.05605132      -0.77893962      -1.06407641
H        0.30659564      -2.15196456      -0.26483575
H       -2.53465638      -0.63793633      -0.44851097
H       -1.23875786      -0.22281314       0.86015392
H       -1.26202196       0.64825696      -2.01930136
H       -2.74188083       0.45190731      -0.87570687
H       -0.15350166       2.45068802      -1.56262713
