15
Frame=0 idx=009909 GeodesicLength=0.0 rxn_smarts="[C:1]([C@@:2]1([H:11])[C@:3]([C:4]#[N:5])([H:12])[N:6]1[C:7]([H:13])([H:14])[H:15])([H:8])([H:9])[H:10]>>[C:1]([H:8])([H:9])([H:10])[H:13].[C:2]1([H:11])=[N+:6]([C-:7]([H:14])[H:15])[C@@:3]1([C:4]#[N:5])[H:12]"
C       -1.57710786      -0.46357660       0.35528391
C        0.08575730      -0.15870731      -1.27613950
C        0.90221905       1.00202753      -0.86822078
C        0.36360624       1.94224742       0.10547356
N       -0.00964451       2.72325030       0.85837879
N        1.12484094      -0.38957149      -0.49154648
C        1.08611969      -0.93995472       0.77133885
H       -1.92327566      -0.46080543       1.39396978
H       -2.00510320       0.41947391      -0.11108752
H       -1.95854401      -1.35976541      -0.13050177
H       -0.30636581      -0.59129540      -2.18205860
H        1.68748356       1.43647083      -1.47972542
H       -0.32716541      -0.63219000       0.80849471
H        1.78126465      -0.50032348       1.48082121
H        1.07591503      -2.02728019       0.76551932
15
Frame=1 idx=009909 GeodesicLength=0.10598381590791221 rxn_smarts="[C:1]([C@@:2]1([H:11])[C@:3]([C:4]#[N:5])([H:12])[N:6]1[C:7]([H:13])([H:14])[H:15])([H:8])([H:9])[H:10]>>[C:1]([H:8])([H:9])([H:10])[H:13].[C:2]1([H:11])=[N+:6]([C-:7]([H:14])[H:15])[C@@:3]1([C:4]#[N:5])[H:12]"
C       -1.58510837      -0.45666699       0.34859592
C        0.07751020      -0.14981785      -1.26469212
C        0.89644924       1.01152027      -0.86272483
C        0.36049458       1.95186276       0.11163289
N       -0.00877582       2.74590783       0.85277352
N        1.12309008      -0.37471570      -0.48026443
C        1.10360638      -0.96228540       0.76307987
H       -1.92793445      -0.39035118       1.38633275
H       -2.02950653       0.39811654      -0.15511741
H       -1.98735617      -1.36799665      -0.09039778
H       -0.28554857      -0.59337930      -2.17768483
H        1.68405808       1.43838297      -1.47683476
H       -0.32692121      -0.68528327       0.82704477
H        1.77606883      -0.51672954       1.49032954
H        1.12987372      -2.04856449       0.72792689
15
Frame=2 idx=009909 GeodesicLength=0.21219008392538513 rxn_smarts="[C:1]([C@@:2]1([H:11])[C@:3]([C:4]#[N:5])([H:12])[N:6]1[C:7]([H:13])([H:14])[H:15])([H:8])([H:9])[H:10]>>[C:1]([H:8])([H:9])([H:10])[H:13].[C:2]1([H:11])=[N+:6]([C-:7]([H:14])[H:15])[C@@:3]1([C:4]#[N:5])[H:12]"
C       -1.59307725      -0.44998587       0.34176421
C        0.06953262      -0.14093810      -1.25320743
C        0.89089205       1.02097217      -0.85674776
C        0.35669021       1.96206408       0.11733911
N       -0.00938489       2.76943638       0.84558614
N        1.12061057      -0.35986859      -0.46757151
C        1.12007460      -0.98468910       0.75454398
H       -1.92681891      -0.31842888       1.37626242
H       -2.05364164       0.37469601      -0.19785682
H       -2.01840039      -1.37370465      -0.04732888
H       -0.26442265      -0.59475607      -2.17258077
H        1.68164970       1.43981879      -1.47289998
H       -0.32790876      -0.74198899       0.84305579
H        1.76838355      -0.53486128       1.50089060
H        1.18582119      -2.06776588       0.68875089
15
Frame=3 idx=009909 GeodesicLength=0.3186471764063492 rxn_smarts="[C:1]([C@@:2]1([H:11])[C@:3]([C:4]#[N:5])([H:12])[N:6]1[C:7]([H:13])([H:14])[H:15])([H:8])([H:9])[H:10]>>[C:1]([H:8])([H:9])([H:10])[H:13].[C:2]1([H:11])=[N+:6]([C-:7]([H:14])[H:15])[C@@:3]1([C:4]#[N:5])[H:12]"
C       -1.60137046      -0.44445366       0.33480991
C        0.06154404      -0.13174330      -1.24152820
C        0.88576948       1.03046207      -0.85041759
C        0.35275127       1.97338722       0.12221200
N       -0.01030867       2.79443814       0.83661061
N        1.11710212      -0.34497773      -0.45334504
C        1.13526411      -1.00691765       0.74588290
H       -1.92041723      -0.24702190       1.36340063
H       -2.07740757       0.34914319      -0.23843473
H       -2.05148403      -1.37728278      -0.00186146
H       -0.24328538      -0.59508004      -2.16661482
H        1.68051604       1.44042292      -1.46816440
H       -0.33017305      -0.80144281       0.85659690
H        1.75802238      -0.55473636       1.51248588
H        1.24347695      -2.08419733       0.64836740
15
Frame=4 idx=009909 GeodesicLength=0.42542424502619997 rxn_smarts="[C:1]([C@@:2]1([H:11])[C@:3]([C:4]#[N:5])([H:12])[N:6]1[C:7]([H:13])([H:14])[H:15])([H:8])([H:9])[H:10]>>[C:1]([H:8])([H:9])([H:10])[H:13].[C:2]1([H:11])=[N+:6]([C-:7]([H:14])[H:15])[C@@:3]1([C:4]#[N:5])[H:12]"
C       -1.61029791      -0.44072178       0.32777871
C        0.05329560      -0.12196705      -1.22947957
C        0.88125364       1.04005485      -0.84383301
C        0.34923347       1.98625725       0.12597182
N       -0.01051635       2.82137322       0.82570009
N        1.11234825      -0.32997065      -0.43751534
C        1.14914313      -1.02882039       0.73714793
H       -1.90983623      -0.17794971       1.34744887
H       -2.10081469       0.32151236      -0.27636514
H       -2.08623659      -1.37905224       0.04553094
H       -0.22244696      -0.59409593      -2.15962305
H        1.68077829       1.43990370      -1.46284512
H       -0.33356000      -0.86279904       0.86797956
H        1.74509601      -0.57652010       1.52495093
H        1.30256033      -2.09720449       0.60715239
15
Frame=5 idx=009909 GeodesicLength=0.5322183013552995 rxn_smarts="[C:1]([C@@:2]1([H:11])[C@:3]([C:4]#[N:5])([H:12])[N:6]1[C:7]([H:13])([H:14])[H:15])([H:8])([H:9])[H:10]>>[C:1]([H:8])([H:9])([H:10])[H:13].[C:2]1([H:11])=[N+:6]([C-:7]([H:14])[H:15])[C@@:3]1([C:4]#[N:5])[H:12]"
C       -1.61993398      -0.43910402       0.32074962
C        0.04466743      -0.11133686      -1.21688118
C        0.87748000       1.04985019      -0.83712139
C        0.34662981       2.00095316       0.12831431
N       -0.00922136       2.85047071       0.81266265
N        1.10634743      -0.31456600      -0.42005152
C        1.16179929      -1.05036139       0.72825147
H       -1.89622155      -0.11316393       1.32861619
H       -2.12378713       0.29204067      -0.31134712
H       -2.12249822      -1.37919756       0.09448971
H       -0.20202732      -0.59156374      -2.15152443
H        1.68253819       1.43814747      -1.45722611
H       -0.33785741      -0.92555176       0.87731828
H        1.72962195      -0.60012030       1.53798081
H        1.36246285      -2.10649665       0.56576872
15
Frame=6 idx=009909 GeodesicLength=0.6393042985444392 rxn_smarts="[C:1]([C@@:2]1([H:11])[C@:3]([C:4]#[N:5])([H:12])[N:6]1[C:7]([H:13])([H:14])[H:15])([H:8])([H:9])[H:10]>>[C:1]([H:8])([H:9])([H:10])[H:13].[C:2]1([H:11])=[N+:6]([C-:7]([H:14])[H:15])[C@@:3]1([C:4]#[N:5])[H:12]"
C       -1.63051076      -0.43968584       0.31385285
C        0.03550336      -0.09980274      -1.20357055
C        0.87446055       1.05981780      -0.83020862
C        0.34511995       2.01761992       0.12921814
N       -0.00610449       2.88187580       0.79745221
N        1.09891579      -0.29882968      -0.40077974
C        1.17339525      -1.07150537       0.71917320
H       -1.88079974      -0.05268928       1.30672800
H       -2.14651376       0.26074363      -0.34372109
H       -2.15958617      -1.37776270       0.14484459
H       -0.18228507      -0.58752966      -2.14202712
H        1.68569005       1.43491657      -1.45120733
H       -0.34272765      -0.98953197       0.88488108
H        1.71205997      -0.62607463       1.55145358
H        1.42338271      -2.11156184       0.52391080
15
Frame=7 idx=009909 GeodesicLength=0.7467072284748102 rxn_smarts="[C:1]([C@@:2]1([H:11])[C@:3]([C:4]#[N:5])([H:12])[N:6]1[C:7]([H:13])([H:14])[H:15])([H:8])([H:9])[H:10]>>[C:1]([H:8])([H:9])([H:10])[H:13].[C:2]1([H:11])=[N+:6]([C-:7]([H:14])[H:15])[C@@:3]1([C:4]#[N:5])[H:12]"
C       -1.64209105      -0.44234310       0.30725073
C        0.02573081      -0.08730610      -1.18939035
C        0.87219693       1.06991782      -0.82305073
C        0.34488388       2.03630930       0.12864703
N       -0.00093163       2.91561727       0.77998718
N        1.08999196      -0.28271399      -0.37955866
C        1.18414759      -1.09226395       0.70978927
H       -1.86469804       0.00319643       1.28197359
H       -2.16906126       0.22771911      -0.37372360
H       -2.19700654      -1.37459421       0.19636790
H       -0.16336210      -0.58205311      -2.13094412
H        1.69011688       1.43002169      -1.44477084
H       -0.34785855      -1.05491966       0.89060678
H        1.69266651      -0.65466479       1.56514696
H        1.48527461      -2.11192270       0.48166886
15
Frame=8 idx=009909 GeodesicLength=0.8544580605192097 rxn_smarts="[C:1]([C@@:2]1([H:11])[C@:3]([C:4]#[N:5])([H:12])[N:6]1[C:7]([H:13])([H:14])[H:15])([H:8])([H:9])[H:10]>>[C:1]([H:8])([H:9])([H:10])[H:13].[C:2]1([H:11])=[N+:6]([C-:7]([H:14])[H:15])[C@@:3]1([C:4]#[N:5])[H:12]"
C       -1.65465714      -0.44678760       0.30113769
C        0.01531508      -0.07384484      -1.17421798
C        0.87067048       1.08008511      -0.81556159
C        0.34603564       2.05700385       0.12659697
N        0.00639164       2.95166986       0.76016616
N        1.07951862      -0.26617194      -0.35624514
C        1.19426641      -1.11263609       0.69995258
H       -1.84902046       0.05446750       1.25458636
H       -2.19145992       0.19299910      -0.40166787
H       -2.23423053      -1.36943539       0.24894509
H       -0.14537438      -0.57524084      -2.11812133
H        1.69569600       1.42331798      -1.43781217
H       -0.35295871      -1.12206764       0.89431564
H        1.67171549      -0.68624042       1.57875505
H        1.54809176      -2.10711864       0.43917054
15
Frame=9 idx=009909 GeodesicLength=0.9618611093233866 rxn_smarts="[C:1]([C@@:2]1([H:11])[C@:3]([C:4]#[N:5])([H:12])[N:6]1[C:7]([H:13])([H:14])[H:15])([H:8])([H:9])[H:10]>>[C:1]([H:8])([H:9])([H:10])[H:13].[C:2]1([H:11])=[N+:6]([C-:7]([H:14])[H:15])[C@@:3]1([C:4]#[N:5])[H:12]"
C       -1.66801092      -0.45285856       0.29574181
C        0.00418325      -0.05926020      -1.15805056
C        0.86993407       1.09034901      -0.80772002
C        0.34879638       2.07976841       0.12264528
N        0.01636227       2.98977713       0.73803735
N        1.06735184      -0.24882555      -0.33078329
C        1.20372853      -1.13249211       0.68945154
H       -1.83465493       0.10071249       1.22521501
H       -2.21363149       0.15639807      -0.42776966
H       -2.27091269      -1.36237121       0.30278800
H       -0.12842273      -0.56700685      -2.10357000
H        1.70258288       1.41475209      -1.43013556
H       -0.35767813      -1.19124062       0.89514032
H        1.64890302      -0.72067328       1.59189746
H        1.61146865      -2.09702884       0.39711231
15
Frame=10 idx=009909 GeodesicLength=1.0694528607715075 rxn_smarts="[C:1]([C@@:2]1([H:11])[C@:3]([C:4]#[N:5])([H:12])[N:6]1[C:7]([H:13])([H:14])[H:15])([H:8])([H:9])[H:10]>>[C:1]([H:8])([H:9])([H:10])[H:13].[C:2]1([H:11])=[N+:6]([C-:7]([H:14])[H:15])[C@@:3]1([C:4]#[N:5])[H:12]"
C       -1.68222208      -0.46005777       0.29133797
C       -0.00767383      -0.04366856      -1.14067783
C        0.86991963       1.10048805      -0.79929075
C        0.35305316       2.10443893       0.11705214
N        0.02866084       3.03001925       0.71330003
N        1.05340163      -0.23096499      -0.30282128
C        1.21279634      -1.15183742       0.67813693
H       -1.82243104       0.14306936       1.19393634
H       -2.23563456       0.11781872      -0.45230588
H       -2.30627211      -1.35302622       0.35755411
H       -0.11260384      -0.55761904      -2.08699263
H        1.71048768       1.40397477      -1.42150286
H       -0.36183928      -1.26308454       0.89274487
H        1.62469544      -0.75875576       1.60439589
H        1.67566202      -2.08079480       0.35513296
15
Frame=11 idx=009909 GeodesicLength=1.177125218886832 rxn_smarts="[C:1]([C@@:2]1([H:11])[C@:3]([C:4]#[N:5])([H:12])[N:6]1[C:7]([H:13])([H:14])[H:15])([H:8])([H:9])[H:10]>>[C:1]([H:8])([H:9])([H:10])[H:13].[C:2]1([H:11])=[N+:6]([C-:7]([H:14])[H:15])[C@@:3]1([C:4]#[N:5])[H:12]"
C       -1.69718060      -0.46800984       0.28821744
C       -0.02029040      -0.02704214      -1.12198165
C        0.87062114       1.11034834      -0.79013447
C        0.35891723       2.13092913       0.10969826
N        0.04352905       3.07222671       0.68588784
N        1.03755385      -0.21256104      -0.27216405
C        1.22154339      -1.17046980       0.66585509
H       -1.81311445       0.18203159       1.16119835
H       -2.25741128       0.07700809      -0.47538596
H       -2.33970501      -1.34151663       0.41302086
H       -0.09803606      -0.54713694      -2.06825920
H        1.71931339       1.39072066      -1.41174083
H       -0.36519071      -1.33800618       0.88628590
H        1.59907683      -0.80068209       1.61590901
H        1.74037365      -2.05783986       0.31359341
15
Frame=12 idx=009909 GeodesicLength=1.2847575113122958 rxn_smarts="[C:1]([C@@:2]1([H:11])[C@:3]([C:4]#[N:5])([H:12])[N:6]1[C:7]([H:13])([H:14])[H:15])([H:8])([H:9])[H:10]>>[C:1]([H:8])([H:9])([H:10])[H:13].[C:2]1([H:11])=[N+:6]([C-:7]([H:14])[H:15])[C@@:3]1([C:4]#[N:5])[H:12]"
C       -1.71277330      -0.47636899       0.28665744
C       -0.03373551      -0.00936080      -1.10188828
C        0.87203325       1.11979158      -0.78010408
C        0.36649511       2.15909025       0.10056105
N        0.06132699       3.11617785       0.65581992
N        1.01968998      -0.19366038      -0.23872560
C        1.23002276      -1.18812059       0.65243395
H       -1.80745413       0.21815480       1.12729654
H       -2.27886728       0.03353362      -0.49708909
H       -2.37052516      -1.32799794       0.46901949
H       -0.08490659      -0.53557050      -2.04731774
H        1.72894012       1.37482309      -1.40069098
H       -0.36748450      -1.41618838       0.87488025
H        1.57208689      -0.84655389       1.62594462
H        1.80515136      -2.02774971       0.27320252
15
Frame=13 idx=009909 GeodesicLength=1.3919806466675635 rxn_smarts="[C:1]([C@@:2]1([H:11])[C@:3]([C:4]#[N:5])([H:12])[N:6]1[C:7]([H:13])([H:14])[H:15])([H:8])([H:9])[H:10]>>[C:1]([H:8])([H:9])([H:10])[H:13].[C:2]1([H:11])=[N+:6]([C-:7]([H:14])[H:15])[C@@:3]1([C:4]#[N:5])[H:12]"
C       -1.72887375      -0.48482280       0.28674149
C       -0.04812667       0.00940775      -1.08062986
C        0.87414055       1.12874504      -0.76913893
C        0.37603876       2.18864954       0.08954072
N        0.08273127       3.16118846       0.62391970
N        0.99969665      -0.17417671      -0.20285689
C        1.23820435      -1.20432705       0.63774444
H       -1.80619597       0.25198555       1.09211004
H       -2.29982229      -0.01345174      -0.51766268
H       -2.39814236      -1.31283739       0.52611288
H       -0.07351369      -0.52283940      -2.02449918
H        1.73926268       1.35639395      -1.38822425
H       -0.36843744      -1.49718883       0.85773694
H        1.54358231      -0.89580869       1.63387600
H        1.86945558      -1.99091768       0.23522956
15
Frame=14 idx=009909 GeodesicLength=1.4988779682561992 rxn_smarts="[C:1]([C@@:2]1([H:11])[C@:3]([C:4]#[N:5])([H:12])[N:6]1[C:7]([H:13])([H:14])[H:15])([H:8])([H:9])[H:10]>>[C:1]([H:8])([H:9])([H:10])[H:13].[C:2]1([H:11])=[N+:6]([C-:7]([H:14])[H:15])[C@@:3]1([C:4]#[N:5])[H:12]"
C       -1.74534140      -0.49284513       0.28882417
C       -0.06350031       0.02916466      -1.05801023
C        0.87688323       1.13688269      -0.75704356
C        0.38750075       2.21926658       0.07690320
N        0.10781433       3.20705171       0.59005295
N        0.97761566      -0.15458984      -0.16446530
C        1.24606455      -1.21881240       0.62171515
H       -1.80976924       0.28471046       1.05579201
H       -2.32006161      -0.06429863      -0.53684387
H       -2.42193622      -1.29634234       0.58365437
H       -0.06404215      -0.50909650      -1.99961745
H        1.75000624       1.33508610      -1.37432748
H       -0.36772329      -1.58101640       0.83384594
H        1.51373011      -0.94876686       1.63930565
H        1.93275936      -1.94639411       0.20021446
15
Frame=15 idx=009909 GeodesicLength=1.6053010650255097 rxn_smarts="[C:1]([C@@:2]1([H:11])[C@:3]([C:4]#[N:5])([H:12])[N:6]1[C:7]([H:13])([H:14])[H:15])([H:8])([H:9])[H:10]>>[C:1]([H:8])([H:9])([H:10])[H:13].[C:2]1([H:11])=[N+:6]([C-:7]([H:14])[H:15])[C@@:3]1([C:4]#[N:5])[H:12]"
C       -1.76201415      -0.49999406       0.29290616
C       -0.07989815       0.04976092      -1.03427914
C        0.88014368       1.14402820      -0.74381227
C        0.40096680       2.25042724       0.06286168
N        0.13695435       3.25290636       0.55517931
N        0.95356861      -0.13517431      -0.12411818
C        1.25357854      -1.23107939       0.60440716
H       -1.81847031       0.31707172       1.01802021
H       -2.33920636      -0.11962405      -0.55456331
H       -2.44152322      -1.27887032       0.64179197
H       -0.05673323      -0.49445184      -1.97302768
H        1.76082756       1.31105306      -1.35912675
H       -0.36500499      -1.66686556       0.80272003
H        1.48259464      -1.00466565       1.64165918
H        1.99421624      -1.89452230       0.16938162
15
Frame=16 idx=009909 GeodesicLength=1.7112951078135639 rxn_smarts="[C:1]([C@@:2]1([H:11])[C@:3]([C:4]#[N:5])([H:12])[N:6]1[C:7]([H:13])([H:14])[H:15])([H:8])([H:9])[H:10]>>[C:1]([H:8])([H:9])([H:10])[H:13].[C:2]1([H:11])=[N+:6]([C-:7]([H:14])[H:15])[C@@:3]1([C:4]#[N:5])[H:12]"
C       -1.77879377      -0.50592261       0.29888045
C       -0.09735989       0.07099312      -1.00979304
C        0.88374098       1.15004092      -0.72950551
C        0.41646885       2.28150688       0.04782381
N        0.17023134       3.29793243       0.52019083
N        0.92778490      -0.11624225      -0.08258292
C        1.26075784      -1.24070265       0.58595685
H       -1.83235376       0.34942383       0.97843935
H       -2.35676412      -0.17966192      -0.57046916
H       -2.45674055      -1.26045619       0.70035563
H       -0.05182021      -0.47904871      -1.94523349
H        1.77128186       1.28463047      -1.34286321
H       -0.35994065      -1.75379323       0.76435471
H        1.45043150      -1.06252162       1.64041755
H        2.05307568      -1.83617846       0.14402814
