15
Frame=0 idx=006401 GeodesicLength=0.0 rxn_smarts="[C:1]([C@@:2]1([H:11])[O:3]/[C:4](=[N:5]\[H:12])[C@:6]1([N:7]([H:14])[H:15])[H:13])([H:8])([H:9])[H:10]>>[C:1]([C@@:2]([O:3][H:12])([C@@:6]([C:4]#[N:5])([N:7]([H:14])[H:15])[H:13])[H:11])([H:8])([H:9])[H:10]"
C        1.44790837      -0.23517202       0.70807125
C        0.67445988      -0.39838408      -0.58422008
O        0.02762027      -1.64668542      -0.70781333
C       -1.42579146      -0.61424770      -0.16192775
N       -2.00277123      -1.29404667       0.62933922
C       -0.58386363       0.51591244      -0.70332046
N       -0.62500346       1.77001142      -0.03264018
H        0.80203050      -0.37951656       1.57933906
H        1.91150891       0.75117100       0.77035760
H        2.23000115      -0.99319733       0.75148334
H        1.33076940      -0.23003042      -1.44236601
H       -0.97910662      -1.91421868       0.27416752
H       -0.81292871       0.64244275      -1.76096936
H       -1.41421781       2.34130394      -0.29178123
H       -0.58061555       1.68465738       0.97228035
15
Frame=1 idx=006401 GeodesicLength=0.06548521916843032 rxn_smarts="[C:1]([C@@:2]1([H:11])[O:3]/[C:4](=[N:5]\[H:12])[C@:6]1([N:7]([H:14])[H:15])[H:13])([H:8])([H:9])[H:10]>>[C:1]([C@@:2]([O:3][H:12])([C@@:6]([C:4]#[N:5])([N:7]([H:14])[H:15])[H:13])[H:11])([H:8])([H:9])[H:10]"
C        1.44996749      -0.23406444       0.70810774
C        0.67491324      -0.39600485      -0.58291844
O        0.02680026      -1.64573506      -0.70339791
C       -1.42906026      -0.60965374      -0.16014595
N       -2.01131063      -1.29398348       0.62436434
C       -0.58388420       0.51608266      -0.70212969
N       -0.62120937       1.77211534      -0.03306217
H        0.80555712      -0.37865958       1.58031145
H        1.91255422       0.75271927       0.77024654
H        2.23323181      -0.99097935       0.74987947
H        1.32924315      -0.22944193      -1.44260549
H       -0.97891654      -1.93472189       0.27262739
H       -0.81487061       0.64255311      -1.75945018
H       -1.41037713       2.34284027      -0.29402155
H       -0.58263855       1.68693367       0.97219445
15
Frame=2 idx=006401 GeodesicLength=0.13094199178907007 rxn_smarts="[C:1]([C@@:2]1([H:11])[O:3]/[C:4](=[N:5]\[H:12])[C@:6]1([N:7]([H:14])[H:15])[H:13])([H:8])([H:9])[H:10]>>[C:1]([C@@:2]([O:3][H:12])([C@@:6]([C:4]#[N:5])([N:7]([H:14])[H:15])[H:13])[H:11])([H:8])([H:9])[H:10]"
C        1.45199041      -0.23294329       0.70815492
C        0.67530832      -0.39362024      -0.58158889
O        0.02586182      -1.64475350      -0.69886956
C       -1.43242856      -0.60490831      -0.15829668
N       -2.01972331      -1.29402735       0.61929189
C       -0.58392963       0.51630335      -0.70091029
N       -0.61739190       1.77427603      -0.03349147
H        0.80905262      -0.37773412       1.58130418
H        1.91360819       0.75426117       0.77011116
H        2.23639084      -0.98877709       0.74829795
H        1.32764341      -0.22892101      -1.44283077
H       -0.97849098      -1.95569160       0.27095990
H       -0.81682878       0.64270686      -1.75790204
H       -1.40646227       2.34448185      -0.29630327
H       -0.58460017       1.68934727       0.97207298
15
Frame=3 idx=006401 GeodesicLength=0.19637807583316533 rxn_smarts="[C:1]([C@@:2]1([H:11])[O:3]/[C:4](=[N:5]\[H:12])[C@:6]1([N:7]([H:14])[H:15])[H:13])([H:8])([H:9])[H:10]>>[C:1]([C@@:2]([O:3][H:12])([C@@:6]([C:4]#[N:5])([N:7]([H:14])[H:15])[H:13])[H:11])([H:8])([H:9])[H:10]"
C        1.45397403      -0.23180866       0.70821371
C        0.67564031      -0.39123087      -0.58022936
O        0.02479631      -1.64373892      -0.69422114
C       -1.43590290      -0.60000028      -0.15637430
N       -2.02800427      -1.29418599       0.61411569
C       -0.58400184       0.51657807      -0.69966097
N       -0.61354790       1.77649839      -0.03393024
H        0.81251441      -0.37673671       1.58231908
H        1.91467093       0.75579545       0.76994951
H        2.23947321      -0.98659295       0.74674034
H        1.32596469      -0.22847267      -1.44304046
H       -0.97780671      -1.97715173       0.26915620
H       -0.81880549       0.64290581      -1.75632381
H       -1.40246863       2.34623491      -0.29862874
H       -0.58649614       1.69190616       0.97191449
15
Frame=4 idx=006401 GeodesicLength=0.26180186102517855 rxn_smarts="[C:1]([C@@:2]1([H:11])[O:3]/[C:4](=[N:5]\[H:12])[C@:6]1([N:7]([H:14])[H:15])[H:13])([H:8])([H:9])[H:10]>>[C:1]([C@@:2]([O:3][H:12])([C@@:6]([C:4]#[N:5])([N:7]([H:14])[H:15])[H:13])[H:11])([H:8])([H:9])[H:10]"
C        1.45591508      -0.23066057       0.70828513
C        0.67590394      -0.38883735      -0.57883743
O        0.02359445      -1.64268954      -0.68944467
C       -1.43949032      -0.59491740      -0.15437194
N       -2.03614843      -1.29446806       0.60882809
C       -0.58410309       0.51691056      -0.69838002
N       -0.60967378       1.77878774      -0.03438098
H        0.81593984      -0.37566356       1.58335823
H        1.91574262       0.75732077       0.76975950
H        2.24247362      -0.98442945       0.74520830
H        1.32420076      -0.22810238      -1.44323310
H       -0.97683854      -1.99912809       0.26720617
H       -0.82080365       0.64315167      -1.75471400
H       -1.39839092       2.34810621      -0.30100074
H       -0.58832160       1.69461945       0.97171745
15
Frame=5 idx=006401 GeodesicLength=0.3272196130956959 rxn_smarts="[C:1]([C@@:2]1([H:11])[O:3]/[C:4](=[N:5]\[H:12])[C@:6]1([N:7]([H:14])[H:15])[H:13])([H:8])([H:9])[H:10]>>[C:1]([C@@:2]([O:3][H:12])([C@@:6]([C:4]#[N:5])([N:7]([H:14])[H:15])[H:13])[H:11])([H:8])([H:9])[H:10]"
C        1.45781022      -0.22949915       0.70837026
C        0.67609369      -0.38644054      -0.57741051
O        0.02224664      -1.64160326      -0.68453203
C       -1.44319782      -0.58964723      -0.15228171
N       -2.04415144      -1.29488198       0.60342011
C       -0.58423585       0.51730449      -0.69706555
N       -0.60576581       1.78114947      -0.03484621
H        0.81932634      -0.37451061       1.58442396
H        1.91682352       0.75883568       0.76953872
H        2.24538651      -0.98228940       0.74370364
H        1.32234503      -0.22781580      -1.44340699
H       -0.97555943      -2.02164726       0.26509923
H       -0.82282664       0.64344578      -1.75307079
H       -1.39422372       2.35010325      -0.30342223
H       -0.59007121       1.69749655       0.97148011
15
Frame=6 idx=006401 GeodesicLength=0.3926399182710316 rxn_smarts="[C:1]([C@@:2]1([H:11])[O:3]/[C:4](=[N:5]\[H:12])[C@:6]1([N:7]([H:14])[H:15])[H:13])([H:8])([H:9])[H:10]>>[C:1]([C@@:2]([O:3][H:12])([C@@:6]([C:4]#[N:5])([N:7]([H:14])[H:15])[H:13])[H:11])([H:8])([H:9])[H:10]"
C        1.45965621      -0.22832420       0.70847041
C        0.67620347      -0.38404147      -0.57594528
O        0.02074256      -1.64047879      -0.67947294
C       -1.44703281      -0.58417656      -0.15009362
N       -2.05201092      -1.29543600       0.59788143
C       -0.58440308       0.51776350      -0.69571474
N       -0.60181987       1.78358922      -0.03532876
H        0.82267194      -0.37327321       1.58551908
H        1.91791417       0.76033899       0.76928434
H        2.24820646      -0.98017526       0.74222823
H        1.32038979      -0.22761953      -1.44356019
H       -0.97393958      -2.04473693       0.26281960
H       -0.82487881       0.64378880      -1.75139148
H       -1.38996085       2.35223326      -0.30589665
H       -0.59173869       1.70054818       0.97120057
15
Frame=7 idx=006401 GeodesicLength=0.45806390012901427 rxn_smarts="[C:1]([C@@:2]1([H:11])[O:3]/[C:4](=[N:5]\[H:12])[C@:6]1([N:7]([H:14])[H:15])[H:13])([H:8])([H:9])[H:10]>>[C:1]([C@@:2]([O:3][H:12])([C@@:6]([C:4]#[N:5])([N:7]([H:14])[H:15])[H:13])[H:11])([H:8])([H:9])[H:10]"
C        1.46144982      -0.22713589       0.70858689
C        0.67622742      -0.38164110      -0.57443855
O        0.01907228      -1.63931409      -0.67425806
C       -1.45100212      -0.57849241      -0.14779690
N       -2.05972467      -1.29613748       0.59220089
C       -0.58460780       0.51829094      -0.69432482
N       -0.59783163       1.78611263      -0.03583189
H        0.82597468      -0.37194708       1.58664648
H        1.91901510       0.76182917       0.76899376
H        2.25092792      -0.97808999       0.74078392
H        1.31832759      -0.22751974      -1.44369065
H       -0.97194934      -2.06842499       0.26035296
H       -0.82696484       0.64418098      -1.74967332
H       -1.38559691       2.35450367      -0.30842735
H       -0.59331750       1.70378538       0.97087665
15
Frame=8 idx=006401 GeodesicLength=0.5235042630541811 rxn_smarts="[C:1]([C@@:2]1([H:11])[O:3]/[C:4](=[N:5]\[H:12])[C@:6]1([N:7]([H:14])[H:15])[H:13])([H:8])([H:9])[H:10]>>[C:1]([C@@:2]([O:3][H:12])([C@@:6]([C:4]#[N:5])([N:7]([H:14])[H:15])[H:13])[H:11])([H:8])([H:9])[H:10]"
C        1.46318790      -0.22593379       0.70872137
C        0.67615849      -0.37924107      -0.57288590
O        0.01722429      -1.63810797      -0.66887438
C       -1.45511329      -0.57258087      -0.14537770
N       -2.06729419      -1.29699262       0.58636589
C       -0.58485390       0.51888993      -0.69289171
N       -0.59379661       1.78872561      -0.03635895
H        0.82923329      -0.37052665       1.58780993
H        1.92012707       0.76330512       0.76866341
H        2.25354560      -0.97603608       0.73937298
H        1.31614904      -0.22752429      -1.44379581
H       -0.96955253      -2.09274174       0.25767583
H       -0.82909090       0.64462150      -1.74791220
H       -1.38112443       2.35692224      -0.31101884
H       -0.59479984       1.70722068       0.97050609
15
Frame=9 idx=006401 GeodesicLength=0.5889618212427316 rxn_smarts="[C:1]([C@@:2]1([H:11])[O:3]/[C:4](=[N:5]\[H:12])[C@:6]1([N:7]([H:14])[H:15])[H:13])([H:8])([H:9])[H:10]>>[C:1]([C@@:2]([O:3][H:12])([C@@:6]([C:4]#[N:5])([N:7]([H:14])[H:15])[H:13])[H:11])([H:8])([H:9])[H:10]"
C        1.46486941      -0.22471714       0.70887527
C        0.67599138      -0.37684322      -0.57128277
O        0.01519085      -1.63686090      -0.66330963
C       -1.45937054      -0.56643241      -0.14282194
N       -2.07473250      -1.29799847       0.58036205
C       -0.58514484       0.51956156      -0.69141068
N       -0.58971090       1.79143179      -0.03691269
H        0.83244949      -0.36900663       1.58901313
H        1.92125199       0.76476668       0.76828943
H        2.25605647      -0.97401472       0.73799676
H        1.31384583      -0.22764087      -1.44387308
H       -0.96671557      -2.11771021       0.25476396
H       -0.83126314       0.64510722      -1.74610331
H       -1.37654013       2.35949325      -0.31367325
H       -0.59617780       1.71086407       0.97008673
15
Frame=10 idx=006401 GeodesicLength=0.6544362252252932 rxn_smarts="[C:1]([C@@:2]1([H:11])[O:3]/[C:4](=[N:5]\[H:12])[C@:6]1([N:7]([H:14])[H:15])[H:13])([H:8])([H:9])[H:10]>>[C:1]([C@@:2]([O:3][H:12])([C@@:6]([C:4]#[N:5])([N:7]([H:14])[H:15])[H:13])[H:11])([H:8])([H:9])[H:10]"
C        1.46648901      -0.22348618       0.70905115
C        0.67571701      -0.37444906      -0.56962393
O        0.01295667      -1.63557024      -0.65754876
C       -1.46378433      -0.56002763      -0.14011072
N       -2.08202789      -1.29916915       0.57417584
C       -0.58548569       0.52031044      -0.68987693
N       -0.58556811       1.79423975      -0.03749897
H        0.83561964      -0.36738083       1.59026092
H        1.92238988       0.76621150       0.76786857
H        2.25845213      -0.97203028       0.73665904
H        1.31140637      -0.22787844      -1.44391910
H       -0.96339937      -2.14336843       0.25158787
H       -0.83349004       0.64563722      -1.74424170
H       -1.37183421       2.36222786      -0.31639790
H       -0.59744109       1.71473349       0.96961463
15
Frame=11 idx=006401 GeodesicLength=0.7199268178132077 rxn_smarts="[C:1]([C@@:2]1([H:11])[O:3]/[C:4](=[N:5]\[H:12])[C@:6]1([N:7]([H:14])[H:15])[H:13])([H:8])([H:9])[H:10]>>[C:1]([C@@:2]([O:3][H:12])([C@@:6]([C:4]#[N:5])([N:7]([H:14])[H:15])[H:13])[H:11])([H:8])([H:9])[H:10]"
C        1.46804352      -0.22224060       0.70925140
C        0.67532759      -0.37206074      -0.56790367
O        0.01051003      -1.63423504      -0.65157633
C       -1.46836181      -0.55335189      -0.13722422
N       -2.08918274      -1.30050731       0.56779260
C       -0.58588143       0.52113884      -0.68828469
N       -0.58136291       1.79715568      -0.03812279
H        0.83874331      -0.36564296       1.59155829
H        1.92354181       0.76763831       0.76739698
H        2.26072668      -0.97008554       0.73536282
H        1.30881961      -0.22824576      -1.44393016
H       -0.95956433      -2.16974885       0.24811368
H       -0.83578063       0.64620781      -1.74232132
H       -1.36699964       2.36513362      -0.31919842
H       -0.59857905       1.71884444       0.96908583
15
Frame=12 idx=006401 GeodesicLength=0.7854252554472537 rxn_smarts="[C:1]([C@@:2]1([H:11])[O:3]/[C:4](=[N:5]\[H:12])[C@:6]1([N:7]([H:14])[H:15])[H:13])([H:8])([H:9])[H:10]>>[C:1]([C@@:2]([O:3][H:12])([C@@:6]([C:4]#[N:5])([N:7]([H:14])[H:15])[H:13])[H:11])([H:8])([H:9])[H:10]"
C        1.46953073      -0.22097935       0.70947869
C        0.67481522      -0.36968077      -0.56611509
O        0.00783942      -1.63285564      -0.64537344
C       -1.47310942      -0.54639094      -0.13413902
N       -2.09620373      -1.30201381       0.56119447
C       -0.58633763       0.52204803      -0.68662667
N       -0.57708965       1.80018534      -0.03878967
H        0.84182192      -0.36378571       1.59291114
H        1.92470953       0.76904669       0.76686990
H        2.26287565      -0.96818234       0.73411120
H        1.30607330      -0.22875331      -1.44390221
H       -0.95517054      -2.19688152       0.24429951
H       -0.83814534       0.64681313      -1.74033453
H       -1.36202965       2.36821681      -0.32208068
H       -0.59957980       1.72321339       0.96849639
15
Frame=13 idx=006401 GeodesicLength=0.8509220435663214 rxn_smarts="[C:1]([C@@:2]1([H:11])[O:3]/[C:4](=[N:5]\[H:12])[C@:6]1([N:7]([H:14])[H:15])[H:13])([H:8])([H:9])[H:10]>>[C:1]([C@@:2]([O:3][H:12])([C@@:6]([C:4]#[N:5])([N:7]([H:14])[H:15])[H:13])[H:11])([H:8])([H:9])[H:10]"
C        1.47094826      -0.21970167       0.70973577
C        0.67417158      -0.36731215      -0.56425099
O        0.00493298      -1.63143196      -0.63892083
C       -1.47803368      -0.53913024      -0.13083005
N       -2.10309801      -1.30368825       0.55436193
C       -0.58686017       0.52303897      -0.68489519
N       -0.57274269       1.80333456      -0.03950544
H        0.84485703      -0.36180147       1.59432564
H        1.92589488       0.77043585       0.76628218
H        2.26489407      -0.96632303       0.73290750
H        1.30315459      -0.22941167      -1.44383071
H       -0.95017534      -2.22479773       0.24010257
H       -0.84059534       0.64744683      -1.73827314
H       -1.35691727       2.37148439      -0.32505115
H       -0.60043088       1.72785758       0.96784193
15
Frame=14 idx=006401 GeodesicLength=0.9164142564977396 rxn_smarts="[C:1]([C@@:2]1([H:11])[O:3]/[C:4](=[N:5]\[H:12])[C@:6]1([N:7]([H:14])[H:15])[H:13])([H:8])([H:9])[H:10]>>[C:1]([C@@:2]([O:3][H:12])([C@@:6]([C:4]#[N:5])([N:7]([H:14])[H:15])[H:13])[H:11])([H:8])([H:9])[H:10]"
C        1.47229413      -0.21840607       0.71002618
C        0.67338724      -0.36495871      -0.56230218
O        0.00177754      -1.62996494      -0.63219414
C       -1.48314148      -0.53155430      -0.12726658
N       -2.10987658      -1.30552715       0.54727385
C       -0.58745606       0.52411188      -0.68308040
N       -0.56831558       1.80660929      -0.04027718
H        0.84785154      -0.35968078       1.59580961
H        1.92710030       0.77180565       0.76562751
H        2.26677739      -0.96450929       0.73175591
H        1.30004825      -0.23023433      -1.44371013
H       -0.94452994      -2.25352986       0.23546489
H       -0.84314424       0.64809975      -1.73612669
H       -1.35165482       2.37494228      -0.32811777
H       -0.60111768       1.73279657       0.96711712
15
Frame=15 idx=006401 GeodesicLength=0.9818941489827444 rxn_smarts="[C:1]([C@@:2]1([H:11])[O:3]/[C:4](=[N:5]\[H:12])[C@:6]1([N:7]([H:14])[H:15])[H:13])([H:8])([H:9])[H:10]>>[C:1]([C@@:2]([O:3][H:12])([C@@:6]([C:4]#[N:5])([N:7]([H:14])[H:15])[H:13])[H:11])([H:8])([H:9])[H:10]"
C        1.47356709      -0.21709080       0.71035366
C        0.67245283      -0.36262505      -0.56025866
O       -0.00163953      -1.62845643      -0.62516653
C       -1.48843858      -0.52364903      -0.12341575
N       -2.11655515      -1.30752216       0.53990838
C       -0.58813258       0.52526564      -0.68117157
N       -0.56380203       1.81001454      -0.04111231
H        0.85080988      -0.35741345       1.59737137
H        1.92832868       0.77315626       0.76489881
H        2.26852192      -0.96274240       0.73066090
H        1.29673844      -0.23123587      -1.44353430
H       -0.93818365      -2.28310747       0.23032189
H       -0.84580641       0.64876082      -1.73388369
H       -1.34623588       2.37859552      -0.33128850
H       -0.60162504       1.73804989       0.96631630
15
Frame=16 idx=006401 GeodesicLength=1.0473518238359327 rxn_smarts="[C:1]([C@@:2]1([H:11])[O:3]/[C:4](=[N:5]\[H:12])[C@:6]1([N:7]([H:14])[H:15])[H:13])([H:8])([H:9])[H:10]>>[C:1]([C@@:2]([O:3][H:12])([C@@:6]([C:4]#[N:5])([N:7]([H:14])[H:15])[H:13])[H:11])([H:8])([H:9])[H:10]"
C        1.47476689      -0.21575342       0.71072235
C        0.67135843      -0.36031677      -0.55810876
O       -0.00533112      -1.62690906      -0.61780670
C       -1.49393030      -0.51540056      -0.11923988
N       -2.12315434      -1.30966197       0.53224011
C       -0.58889780       0.52649793      -0.67915604
N       -0.55919558       1.81355491      -0.04201901
H        0.85373846      -0.35498733       1.59902058
H        1.92958384       0.77448865       0.76408744
H        2.27012490      -0.96102294       0.72962747
H        1.29320753      -0.23243327      -1.44329614
H       -0.93108280      -2.31355888       0.22459810
H       -0.84859817       0.64941620      -1.73153057
H       -1.34065364       2.38244794      -0.33457233
H       -0.60193632       1.74363855       0.96543337
