15
Frame=0 idx=001589 GeodesicLength=0.0 rxn_smarts="[C:1]([C:2]([C@@:3]([C:4]([H:13])([H:14])[H:15])([C:5]#[N:6])[H:12])([H:10])[H:11])([H:7])([H:8])[H:9]>>[C:1](=[C:2]([H:10])[H:11])([H:7])[H:9].[C:3]([C:4]([H:13])([H:14])[H:15])(=[C:5]=[N:6][H:8])[H:12]"
C       -1.99894733       0.13802857      -0.13271425
C       -1.01827342      -0.81978853       0.04411543
C        1.03092701       0.09517707       0.58383991
C        1.96930711      -0.38341285      -0.49246664
C        0.47574151       1.32298754       0.55213398
N       -0.37565844       2.14510344       0.41776632
H       -2.75749444       0.26075841       0.63366459
H       -1.30160748       1.39388391       0.12545712
H       -2.30872100       0.38661660      -1.14281612
H       -0.97980020      -1.40075277       0.95646583
H       -0.53568888      -1.27024214      -0.81364182
H        1.16648579      -0.32486817       1.57587364
H        1.91119453      -1.46967077      -0.58434493
H        1.71550835       0.05555566      -1.45780786
H        3.00702684      -0.12937591      -0.26552526
15
Frame=1 idx=001589 GeodesicLength=0.06591978917657643 rxn_smarts="[C:1]([C:2]([C@@:3]([C:4]([H:13])([H:14])[H:15])([C:5]#[N:6])[H:12])([H:10])[H:11])([H:7])([H:8])[H:9]>>[C:1](=[C:2]([H:10])[H:11])([H:7])[H:9].[C:3]([C:4]([H:13])([H:14])[H:15])(=[C:5]=[N:6][H:8])[H:12]"
C       -2.01240874       0.13854819      -0.11709115
C       -1.01800405      -0.81418956       0.02795631
C        1.02537759       0.09402589       0.57770094
C        1.98240795      -0.38951631      -0.48067260
C        0.48772196       1.33212676       0.53318806
N       -0.35998025       2.15727932       0.39351319
H       -2.74908115       0.24865665       0.67258995
H       -1.31114288       1.40427758       0.12034634
H       -2.36372791       0.37456969      -1.11665428
H       -0.97543205      -1.42562615       0.92027478
H       -0.54980584      -1.24296689      -0.84922305
H        1.15786261      -0.31109929       1.57665701
H        1.92409480      -1.47608522      -0.56895164
H        1.74582983       0.04530442      -1.45224905
H        3.01628811      -0.13530510      -0.23738480
15
Frame=2 idx=001589 GeodesicLength=0.13120408510358145 rxn_smarts="[C:1]([C:2]([C@@:3]([C:4]([H:13])([H:14])[H:15])([C:5]#[N:6])[H:12])([H:10])[H:11])([H:7])([H:8])[H:9]>>[C:1](=[C:2]([H:10])[H:11])([H:7])[H:9].[C:3]([C:4]([H:13])([H:14])[H:15])(=[C:5]=[N:6][H:8])[H:12]"
C       -2.02490584       0.13889086      -0.10180482
C       -1.01772048      -0.80851922       0.01174520
C        1.01979621       0.09311934       0.57158496
C        1.99465745      -0.39559719      -0.46888319
C        0.49986351       1.34119311       0.51461838
N       -0.34436927       2.16914529       0.36985250
H       -2.73957133       0.23601306       0.70990685
H       -1.32072936       1.41469270       0.11553559
H       -2.41650201       0.36178157      -1.08945706
H       -0.97110028      -1.44934850       0.88329788
H       -0.56403393      -1.21519749      -0.88394922
H        1.14906902      -0.29738418       1.57710196
H        1.93636793      -1.48251832      -0.55303847
H        1.77465249       0.03450840      -1.44643876
H        3.02452590      -0.14077943      -0.21007180
15
Frame=3 idx=001589 GeodesicLength=0.1958064204991261 rxn_smarts="[C:1]([C:2]([C@@:3]([C:4]([H:13])([H:14])[H:15])([C:5]#[N:6])[H:12])([H:10])[H:11])([H:7])([H:8])[H:9]>>[C:1](=[C:2]([H:10])[H:11])([H:7])[H:9].[C:3]([C:4]([H:13])([H:14])[H:15])(=[C:5]=[N:6][H:8])[H:12]"
C       -2.03633816       0.13912489      -0.08745494
C       -1.01751191      -0.80284931      -0.00385283
C        1.01431922       0.09223431       0.56561851
C        2.00589381      -0.40142547      -0.45752736
C        0.51222228       1.34997436       0.49715918
N       -0.32878509       2.18058044       0.34807403
H       -2.72981080       0.22312403       0.74427451
H       -1.33016386       1.42509800       0.11097337
H       -2.46580056       0.34823985      -1.06242394
H       -0.96732572      -1.47115587       0.84692709
H       -0.57841894      -1.18812621      -0.91665876
H        1.14072154      -0.28423688       1.57718476
H        1.94817816      -1.48874419      -0.53711291
H        1.80114715       0.02344044      -1.44068180
H        3.03167286      -0.14527839      -0.18449890
15
Frame=4 idx=001589 GeodesicLength=0.25939166041281075 rxn_smarts="[C:1]([C:2]([C@@:3]([C:4]([H:13])([H:14])[H:15])([C:5]#[N:6])[H:12])([H:10])[H:11])([H:7])([H:8])[H:9]>>[C:1](=[C:2]([H:10])[H:11])([H:7])[H:9].[C:3]([C:4]([H:13])([H:14])[H:15])(=[C:5]=[N:6][H:8])[H:12]"
C       -2.04667035       0.13935205      -0.07451992
C       -1.01745639      -0.79726705      -0.01824391
C        1.00904030       0.09115267       0.55987077
C        2.01606103      -0.40680088      -0.44699062
C        0.52477006       1.35828278       0.48140996
N       -0.31325157       2.19151807       0.32925308
H       -2.72058768       0.21036135       0.77465023
H       -1.33926382       1.43547205       0.10664708
H       -2.51065126       0.33403533      -1.03667533
H       -0.96461304      -1.49049971       0.81248335
H       -0.59300986      -1.16293806      -0.94642613
H        1.13335202      -0.27211318       1.57688270
H        1.95980348      -1.49457432      -0.52165610
H        1.82472998       0.01239271      -1.43528425
H        3.03774710      -0.14837380      -0.16140090
15
Frame=5 idx=001589 GeodesicLength=0.3226936284321962 rxn_smarts="[C:1]([C:2]([C@@:3]([C:4]([H:13])([H:14])[H:15])([C:5]#[N:6])[H:12])([H:10])[H:11])([H:7])([H:8])[H:9]>>[C:1](=[C:2]([H:10])[H:11])([H:7])[H:9].[C:3]([C:4]([H:13])([H:14])[H:15])(=[C:5]=[N:6][H:8])[H:12]"
C       -2.05637826       0.13950493      -0.06225596
C       -1.01747334      -0.79163528      -0.03225216
C        1.00385556       0.09010027       0.55417870
C        2.02557502      -0.41199858      -0.43672350
C        0.53755330       1.36633825       0.46641909
N       -0.29755512       2.20218728       0.31178664
H       -2.71129564       0.19736935       0.80301130
H       -1.34834883       1.44586568       0.10242239
H       -2.55318968       0.31916181      -1.01096655
H       -0.96230020      -1.50841545       0.77840950
H       -0.60777750      -1.13816858      -0.97481092
H        1.12629527      -0.26040221       1.57625101
H        1.97114531      -1.50023720      -0.50604951
H        1.84675715       0.00109862      -1.42991183
H        3.04313698      -0.15076888      -0.13950820
15
Frame=6 idx=001589 GeodesicLength=0.38549030191336725 rxn_smarts="[C:1]([C:2]([C@@:3]([C:4]([H:13])([H:14])[H:15])([C:5]#[N:6])[H:12])([H:10])[H:11])([H:7])([H:8])[H:9]>>[C:1](=[C:2]([H:10])[H:11])([H:7])[H:9].[C:3]([C:4]([H:13])([H:14])[H:15])(=[C:5]=[N:6][H:8])[H:12]"
C       -2.06541756       0.13972542      -0.05139644
C       -1.01767549      -0.78608471      -0.04497738
C        0.99895685       0.08876201       0.54868496
C        2.03432638      -0.41672425      -0.42730152
C        0.55058327       1.37387965       0.45312879
N       -0.28170145       2.21247826       0.29729621
H       -2.70313233       0.18467638       0.82777680
H       -1.35717631       1.45626803       0.09820491
H       -2.59201354       0.30374254      -0.98694980
H       -0.96107102      -1.52410063       0.74665181
H       -0.62275949      -1.11552679      -1.00041428
H        1.12037809      -0.24979125       1.57528292
H        1.98255786      -1.50544983      -0.49104403
H        1.86630983      -0.01001303      -1.42500378
H        3.04783492      -0.15184180      -0.11993918
15
Frame=7 idx=001589 GeodesicLength=0.4480317229425132 rxn_smarts="[C:1]([C:2]([C@@:3]([C:4]([H:13])([H:14])[H:15])([C:5]#[N:6])[H:12])([H:10])[H:11])([H:7])([H:8])[H:9]>>[C:1](=[C:2]([H:10])[H:11])([H:7])[H:9].[C:3]([C:4]([H:13])([H:14])[H:15])(=[C:5]=[N:6][H:8])[H:12]"
C       -2.07407694       0.13991465      -0.04110544
C       -1.01795360      -0.78044932      -0.05735699
C        0.99415788       0.08744349       0.54322576
C        2.04263369      -0.42130601      -0.41812833
C        0.56380701       1.38120692       0.44048151
N       -0.26566840       2.22264000       0.28400575
H       -2.69505549       0.17186319       0.85092453
H       -1.36606502       1.46669992       0.09403843
H       -2.62897802       0.28766738      -0.96307220
H       -0.96023765      -1.53860434       0.71529910
H       -0.63794617      -1.09331139      -1.02487116
H        1.11475867      -0.23956212       1.57405111
H        1.99383118      -1.51052031      -0.47592920
H        1.88470186      -0.02130049      -1.42018388
H        3.05209100      -0.15238158      -0.10137900
15
Frame=8 idx=001589 GeodesicLength=0.5104355557053205 rxn_smarts="[C:1]([C:2]([C@@:3]([C:4]([H:13])([H:14])[H:15])([C:5]#[N:6])[H:12])([H:10])[H:11])([H:7])([H:8])[H:9]>>[C:1](=[C:2]([H:10])[H:11])([H:7])[H:9].[C:3]([C:4]([H:13])([H:14])[H:15])(=[C:5]=[N:6][H:8])[H:12]"
C       -2.08249380       0.13993438      -0.03070848
C       -1.01820609      -0.77460365      -0.07019117
C        0.98930461       0.08642098       0.53763502
C        2.05065983      -0.42603461      -0.40870357
C        0.57720421       1.38858573       0.42756157
N       -0.24946303       2.23282981       0.27035243
H       -2.68615775       0.15838593       0.87391148
H       -1.37530175       1.47720009       0.09027549
H       -2.66533814       0.27090721      -0.93804426
H       -0.95918123      -1.55263887       0.68271995
H       -0.65331193      -1.07003935      -1.04945145
H        1.10873476      -0.22906116       1.57259060
H        2.00467719      -1.51571426      -0.46005866
H        1.90287253      -0.03314252      -1.41511857
H        3.05600060      -0.15302971      -0.08277039
15
Frame=9 idx=001589 GeodesicLength=0.5726852841337929 rxn_smarts="[C:1]([C:2]([C@@:3]([C:4]([H:13])([H:14])[H:15])([C:5]#[N:6])[H:12])([H:10])[H:11])([H:7])([H:8])[H:9]>>[C:1](=[C:2]([H:10])[H:11])([H:7])[H:9].[C:3]([C:4]([H:13])([H:14])[H:15])(=[C:5]=[N:6][H:8])[H:12]"
C       -2.09065533       0.13993547      -0.02094680
C       -1.01855257      -0.76868247      -0.08256340
C        0.98459960       0.08537786       0.53206742
C        2.05831033      -0.43059699      -0.39960186
C        0.59081737       1.39572326       0.41533490
N       -0.23303544       2.24290864       0.25801695
H       -2.67765958       0.14482797       0.89520522
H       -1.38464847       1.48774588       0.08662118
H       -2.69980149       0.25358189      -0.91346757
H       -0.95858973      -1.56543444       0.65087867
H       -0.66887188      -1.04743199      -1.07276800
H        1.10313384      -0.21900102       1.57088175
H        2.01545192      -1.52072417      -0.44419609
H        1.91992478      -0.04508485      -1.41021905
H        3.05957668      -0.15314505      -0.06524331
15
Frame=10 idx=001589 GeodesicLength=0.6346745251435554 rxn_smarts="[C:1]([C:2]([C@@:3]([C:4]([H:13])([H:14])[H:15])([C:5]#[N:6])[H:12])([H:10])[H:11])([H:7])([H:8])[H:9]>>[C:1](=[C:2]([H:10])[H:11])([H:7])[H:9].[C:3]([C:4]([H:13])([H:14])[H:15])(=[C:5]=[N:6][H:8])[H:12]"
C       -2.09851106       0.13970963      -0.01107814
C       -1.01887897      -0.76252683      -0.09542346
C        0.97979973       0.08464956       0.52636973
C        2.06560939      -0.43529278      -0.39022553
C        0.60460584       1.40292043       0.40283992
N       -0.21637380       2.25302966       0.24535714
H       -2.66814427       0.13059785       0.91630276
H       -1.39429558       1.49832692       0.08329546
H       -2.73352295       0.23545448      -0.88768638
H       -0.95779911      -1.57771563       0.61773189
H       -0.68468950      -1.02375015      -1.09617544
H        1.09708569      -0.20863248       1.56892774
H        2.02567970      -1.52582029      -0.42754310
H        1.93668991      -0.05759962      -1.40502924
H        3.06274499      -0.15335076      -0.04766336
15
Frame=11 idx=001589 GeodesicLength=0.6966881817176558 rxn_smarts="[C:1]([C:2]([C@@:3]([C:4]([H:13])([H:14])[H:15])([C:5]#[N:6])[H:12])([H:10])[H:11])([H:7])([H:8])[H:9]>>[C:1](=[C:2]([H:10])[H:11])([H:7])[H:9].[C:3]([C:4]([H:13])([H:14])[H:15])(=[C:5]=[N:6][H:8])[H:12]"
C       -2.10623820       0.13938060      -0.00141258
C       -1.01922900      -0.75619913      -0.10833838
C        0.97505532       0.08407464       0.52061266
C        2.07264889      -0.44002133      -0.38085632
C        0.61859231       1.41004567       0.39047332
N       -0.19950404       2.26316240       0.23303618
H       -2.65846040       0.11598251       0.93665179
H       -1.40429586       1.50898600       0.08028961
H       -2.76611865       0.21671288      -0.86157996
H       -0.95704776      -1.58920799       0.58428961
H       -0.70068772      -0.99978242      -1.11914459
H        1.09102521      -0.19829322       1.56678225
H        2.03566972      -1.53091355      -0.41047447
H        1.95291908      -0.07049170      -1.39980599
H        3.06567109      -0.15343537      -0.03052312
15
Frame=12 idx=001589 GeodesicLength=0.7583843559612913 rxn_smarts="[C:1]([C:2]([C@@:3]([C:4]([H:13])([H:14])[H:15])([C:5]#[N:6])[H:12])([H:10])[H:11])([H:7])([H:8])[H:9]>>[C:1](=[C:2]([H:10])[H:11])([H:7])[H:9].[C:3]([C:4]([H:13])([H:14])[H:15])(=[C:5]=[N:6][H:8])[H:12]"
C       -2.11373999       0.13893682       0.00783048
C       -1.01964564      -0.74971466      -0.12101843
C        0.97039217       0.08358943       0.51480252
C        2.07930739      -0.44465723      -0.37164836
C        0.63280431       1.41701586       0.37847581
N       -0.18232209       2.27325136       0.22151836
H       -2.64884696       0.10108373       0.95569576
H       -1.41444258       1.51964305       0.07762890
H       -2.79702587       0.19730161      -0.83562708
H       -0.95660458      -1.59963119       0.55109610
H       -0.71694555      -0.97604193      -1.14115455
H        1.08516263      -0.18813191       1.56435629
H        2.04535855      -1.53585207      -0.39322314
H        1.96829873      -0.08358353      -1.39460083
H        3.06824948      -0.15320933      -0.01413182
15
Frame=13 idx=001589 GeodesicLength=0.8200849707017552 rxn_smarts="[C:1]([C:2]([C@@:3]([C:4]([H:13])([H:14])[H:15])([C:5]#[N:6])[H:12])([H:10])[H:11])([H:7])([H:8])[H:9]>>[C:1](=[C:2]([H:10])[H:11])([H:7])[H:9].[C:3]([C:4]([H:13])([H:14])[H:15])(=[C:5]=[N:6][H:8])[H:12]"
C       -2.12110432       0.13827137       0.01718377
C       -1.02004580      -0.74297399      -0.13414730
C        0.96567992       0.08340221       0.50885562
C        2.08570807      -0.44945667      -0.36220084
C        0.64720666       1.42403694       0.36618031
N       -0.16490879       2.28342028       0.20962641
H       -2.63849125       0.08550629       0.97457579
H       -1.42506280       1.53036452       0.07550291
H       -2.82717272       0.17719678      -0.80872916
H       -0.95592937      -1.60951820       0.51676542
H       -0.73342891      -0.95129063      -1.16325127
H        1.07892792      -0.17766252       1.56173459
H        2.05459244      -1.54089168      -0.37519720
H        1.98346963      -0.09728754      -1.38917132
H        3.07055932      -0.15311717       0.00227228
15
Frame=14 idx=001589 GeodesicLength=0.8817765265284077 rxn_smarts="[C:1]([C:2]([C@@:3]([C:4]([H:13])([H:14])[H:15])([C:5]#[N:6])[H:12])([H:10])[H:11])([H:7])([H:8])[H:9]>>[C:1](=[C:2]([H:10])[H:11])([H:7])[H:9].[C:3]([C:4]([H:13])([H:14])[H:15])(=[C:5]=[N:6][H:8])[H:12]"
C       -2.12822192       0.13722937       0.02706396
C       -1.02036119      -0.73587173      -0.14828198
C        0.96076476       0.08372253       0.50267587
C        2.09179064      -0.45460213      -0.35217177
C        0.66179325       1.43128526       0.35301630
N       -0.14728738       2.29374364       0.19636514
H       -2.62652740       0.06879322       0.99399556
H       -1.43626763       1.54112323       0.07429870
H       -2.85693511       0.15624811      -0.77997008
H       -0.95466841      -1.61916008       0.48006055
H       -0.75018650      -0.92446659      -1.18612192
H        1.07180945      -0.16641233       1.55890707
H        2.06303240      -1.54619834      -0.35586480
H        1.99877667      -0.11196114      -1.38324677
H        3.07248838      -0.15347303       0.01927418
15
Frame=15 idx=001589 GeodesicLength=0.9433746707915472 rxn_smarts="[C:1]([C:2]([C@@:3]([C:4]([H:13])([H:14])[H:15])([C:5]#[N:6])[H:12])([H:10])[H:11])([H:7])([H:8])[H:9]>>[C:1](=[C:2]([H:10])[H:11])([H:7])[H:9].[C:3]([C:4]([H:13])([H:14])[H:15])(=[C:5]=[N:6][H:8])[H:12]"
C       -2.13512971       0.13591417       0.03695709
C       -1.02066819      -0.72848360      -0.16274672
C        0.95580437       0.08432821       0.49637566
C        2.09750239      -0.45986917      -0.34196571
C        0.67659535       1.43853845       0.33966127
N       -0.12938988       2.30411571       0.18293854
H       -2.61384999       0.05141746       1.01292918
H       -1.44788345       1.55188203       0.07370469
H       -2.88550299       0.13450940      -0.75053724
H       -0.95327207      -1.62802272       0.44242052
H       -0.76722295      -0.89680116      -1.20876944
H        1.06441701      -0.15488090       1.55585110
H        2.07089945      -1.55152359      -0.33581634
H        2.01362862      -0.12723471      -1.37709517
H        3.07407206      -0.15388959       0.03609257
15
Frame=16 idx=001589 GeodesicLength=1.004979157955566 rxn_smarts="[C:1]([C:2]([C@@:3]([C:4]([H:13])([H:14])[H:15])([C:5]#[N:6])[H:12])([H:10])[H:11])([H:7])([H:8])[H:9]>>[C:1](=[C:2]([H:10])[H:11])([H:7])[H:9].[C:3]([C:4]([H:13])([H:14])[H:15])(=[C:5]=[N:6][H:8])[H:12]"
C       -2.14173159       0.13418529       0.04724623
C       -1.02090814      -0.72073448      -0.17805752
C        0.95065693       0.08539824       0.48988195
C        2.10279693      -0.46542464      -0.33127420
C        0.69160142       1.44596058       0.32563533
N       -0.11124590       2.31461247       0.16840789
H       -2.59967057       0.03297132       1.03203297
H       -1.46003946       1.56264845       0.07403774
H       -2.91322950       0.11187400      -0.71960578
H       -0.95140083      -1.63637699       0.40274954
H       -0.78458359      -0.86735626      -1.23183841
H        1.05629243      -0.14266420       1.55258475
H        2.07789875      -1.55702934      -0.31459498
H        2.02834135      -0.14340883      -1.37048074
H        3.07522176      -0.15465561       0.05327524
