14
Frame=0 idx=010149 GeodesicLength=0.0 rxn_smarts="[O:1]([C@@:2]1([H:9])[C@@:3]2([H:10])[C@@:4]3([H:11])[C:5]([H:12])([H:13])[C@:6]1([H:14])[N:7]23)[H:8]>>[H:8][H:12].[O:1]=[C:2]([C@@:3]1([H:10])[C@@:4]2([H:11])[C:5]([H:13])=[C:6]([H:14])[N:7]12)[H:9]"
O        1.78789398      -0.41903419      -0.95488775
C        1.35825231      -0.14547559       0.18542448
C        0.53742196       1.09309572       0.46714287
C       -0.85460595       0.98899087      -0.05189611
C       -1.11318123      -0.45397812      -0.37010171
C       -0.48979731      -0.79336897       0.81901832
N       -0.50753609       0.61358578       1.35720352
H        0.60038134      -0.73631469      -1.68035946
H        1.83484189      -0.60790914       1.05812097
H        0.97220784       2.07684596       0.62420711
H       -1.47175128       1.84506532      -0.28325973
H       -0.24037866      -0.88099570      -1.67553310
H       -1.93925550      -0.88978609      -0.91300351
H       -0.47449334      -1.69072121       1.41792410
14
Frame=1 idx=010149 GeodesicLength=0.09026282651469573 rxn_smarts="[O:1]([C@@:2]1([H:9])[C@@:3]2([H:10])[C@@:4]3([H:11])[C:5]([H:12])([H:13])[C@:6]1([H:14])[N:7]23)[H:8]>>[H:8][H:12].[O:1]=[C:2]([C@@:3]1([H:10])[C@@:4]2([H:11])[C:5]([H:13])=[C:6]([H:14])[N:7]12)[H:9]"
O        1.79754655      -0.42451137      -0.94817870
C        1.35827476      -0.14873478       0.19148636
C        0.53661880       1.09021225       0.46546777
C       -0.85757048       0.98575589      -0.04892207
C       -1.11396766      -0.45772974      -0.36908222
C       -0.49063950      -0.79349277       0.82457442
N       -0.50913735       0.61474678       1.35960551
H        0.62443474      -0.72339219      -1.70450399
H        1.83018978      -0.61461196       1.06465682
H        0.97288409       2.07526272       0.60662742
H       -1.47625418       1.84121987      -0.27870862
H       -0.23654511      -0.86478053      -1.70501072
H       -1.95394918      -0.89424728      -0.88975425
H       -0.48188528      -1.68569690       1.43174227
14
Frame=2 idx=010149 GeodesicLength=0.18036547947092318 rxn_smarts="[O:1]([C@@:2]1([H:9])[C@@:3]2([H:10])[C@@:4]3([H:11])[C:5]([H:12])([H:13])[C@:6]1([H:14])[N:7]23)[H:8]>>[H:8][H:12].[O:1]=[C:2]([C@@:3]1([H:10])[C@@:4]2([H:11])[C:5]([H:13])=[C:6]([H:14])[N:7]12)[H:9]"
O        1.80702525      -0.43046155      -0.94138042
C        1.35814405      -0.15224175       0.19754050
C        0.53574996       1.08714016       0.46362731
C       -0.86061951       0.98227591      -0.04603437
C       -1.11487919      -0.46180976      -0.36791317
C       -0.49162841      -0.79365611       0.83041116
N       -0.51077902       0.61597108       1.36197609
H        0.64946013      -0.70953118      -1.72897635
H        1.82541277      -0.62143778       1.07120166
H        0.97348772       2.07331960       0.58854178
H       -1.48078996       1.83711711      -0.27441158
H       -0.23257108      -0.84748890      -1.73490503
H       -1.96861543      -0.89869962      -0.86561470
H       -0.48939727      -1.68049721       1.44593712
14
Frame=3 idx=010149 GeodesicLength=0.27033565331340265 rxn_smarts="[O:1]([C@@:2]1([H:9])[C@@:3]2([H:10])[C@@:4]3([H:11])[C:5]([H:12])([H:13])[C@:6]1([H:14])[N:7]23)[H:8]>>[H:8][H:12].[O:1]=[C:2]([C@@:3]1([H:10])[C@@:4]2([H:11])[C:5]([H:13])=[C:6]([H:14])[N:7]12)[H:9]"
O        1.81628851      -0.43691328      -0.93450575
C        1.35784985      -0.15600677       0.20357646
C        0.53481145       1.08386773       0.46160842
C       -0.86375877       0.97854008      -0.04323757
C       -1.11594246      -0.46623316      -0.36657319
C       -0.49277077      -0.79385733       0.83654241
N       -0.51246087       0.61726523       1.36431102
H        0.67553750      -0.69466057      -1.75375881
H        1.82050547      -0.62839257       1.07774517
H        0.97401434       2.07097810       0.56991582
H       -1.48535942       1.83274859      -0.27038077
H       -0.22845545      -0.82909312      -1.76519311
H       -1.98323588      -0.90313457      -0.84057532
H       -0.49702351      -1.67510836       1.46052521
14
Frame=4 idx=010149 GeodesicLength=0.36017306994257653 rxn_smarts="[O:1]([C@@:2]1([H:9])[C@@:3]2([H:10])[C@@:4]3([H:11])[C:5]([H:12])([H:13])[C@:6]1([H:14])[N:7]23)[H:8]>>[H:8][H:12].[O:1]=[C:2]([C@@:3]1([H:10])[C@@:4]2([H:11])[C:5]([H:13])=[C:6]([H:14])[N:7]12)[H:9]"
O        1.82528263      -0.44389928      -0.92757680
C        1.35738107      -0.16003995       0.20957918
C        0.53379855       1.08038466       0.45939856
C       -0.86699473       0.97453879      -0.04053491
C       -1.11718582      -0.47101332      -0.36503932
C       -0.49407347      -0.79409381       0.84298235
N       -0.51418196       0.61863615       1.36660590
H        0.70275515      -0.67870420      -1.77881891
H        1.81546422      -0.63548243       1.08427147
H        0.97445349       2.06818743       0.55070723
H       -1.48996370       1.82810780      -0.26662484
H       -0.22419254      -0.80956329      -1.79584272
H       -1.99778351      -0.90754282      -0.81463632
H       -0.50475939      -1.66951573       1.47552913
14
Frame=5 idx=010149 GeodesicLength=0.449960194140979 rxn_smarts="[O:1]([C@@:2]1([H:9])[C@@:3]2([H:10])[C@@:4]3([H:11])[C:5]([H:12])([H:13])[C@:6]1([H:14])[N:7]23)[H:8]>>[H:8][H:12].[O:1]=[C:2]([C@@:3]1([H:10])[C@@:4]2([H:11])[C:5]([H:13])=[C:6]([H:14])[N:7]12)[H:9]"
O        1.83395551      -0.45144882      -0.92061808
C        1.35672536      -0.16435302       0.21553270
C        0.53270754       1.07668031       0.45698059
C       -0.87033472       0.97026486      -0.03792906
C       -1.11864272      -0.47616142      -0.36328305
C       -0.49554178      -0.79436118       0.84974666
N       -0.51593731       0.62009244       1.36885734
H        0.73122785      -0.66160815      -1.80411485
H        1.81028679      -0.64271233       1.09076318
H        0.97480164       2.06491642       0.53089177
H       -1.49460807       1.82319003      -0.26315067
H       -0.21980347      -0.78887285      -1.82683890
H       -2.01223961      -0.91192252      -0.78780368
H       -0.51259702      -1.66370376       1.49096604
14
Frame=6 idx=010149 GeodesicLength=0.539715913066446 rxn_smarts="[O:1]([C@@:2]1([H:9])[C@@:3]2([H:10])[C@@:4]3([H:11])[C:5]([H:12])([H:13])[C@:6]1([H:14])[N:7]23)[H:8]>>[H:8][H:12].[O:1]=[C:2]([C@@:3]1([H:10])[C@@:4]2([H:11])[C:5]([H:13])=[C:6]([H:14])[N:7]12)[H:9]"
O        1.84225285      -0.45959893      -0.91366267
C        1.35586811      -0.16896060       0.22141786
C        0.53153418       1.07274290       0.45433839
C       -0.87378632       0.96571017      -0.03542120
C       -1.12035012      -0.48168841      -0.36126983
C       -0.49718418      -0.79465316       0.85685513
N       -0.51772275       0.62164619       1.37106127
H        0.76106765      -0.64327307      -1.82960716
H        1.80497063      -0.65009246       1.09719886
H        0.97504786       2.06110845       0.51042396
H       -1.49929488       1.81799002      -0.25996303
H       -0.21529572      -0.76700390      -1.85814552
H       -2.02657289      -0.91627571      -0.76009521
H       -0.52053443      -1.65765149       1.50686915
14
Frame=7 idx=010149 GeodesicLength=0.6294795031003753 rxn_smarts="[O:1]([C@@:2]1([H:9])[C@@:3]2([H:10])[C@@:4]3([H:11])[C:5]([H:12])([H:13])[C@:6]1([H:14])[N:7]23)[H:8]>>[H:8][H:12].[O:1]=[C:2]([C@@:3]1([H:10])[C@@:4]2([H:11])[C:5]([H:13])=[C:6]([H:14])[N:7]12)[H:9]"
O        1.85011334      -0.46838391      -0.90674972
C        1.35479324      -0.17387751       0.22721177
C        0.53027395       1.06856061       0.45145177
C       -0.87735982       0.96086931      -0.03301065
C       -1.12235061      -0.48760210      -0.35895949
C       -0.49900777      -0.79496217       0.86432863
N       -0.51952993       0.62331020       1.37321516
H        0.79241019      -0.62363617      -1.85523811
H        1.79951498      -0.65763163       1.10355340
H        0.97518687       2.05672522       0.48927277
H       -1.50403295       1.81250442      -0.25706324
H       -0.21068497      -0.74392931      -1.88974545
H       -2.04076218      -0.92060892      -0.73153215
H       -0.52856433      -1.65133804       1.52326532
14
Frame=8 idx=010149 GeodesicLength=0.7192701968645636 rxn_smarts="[O:1]([C@@:2]1([H:9])[C@@:3]2([H:10])[C@@:4]3([H:11])[C:5]([H:12])([H:13])[C@:6]1([H:14])[N:7]23)[H:8]>>[H:8][H:12].[O:1]=[C:2]([C@@:3]1([H:10])[C@@:4]2([H:11])[C:5]([H:13])=[C:6]([H:14])[N:7]12)[H:9]"
O        1.85746532      -0.47783440      -0.89993194
C        1.35348476      -0.17911659       0.23288486
C        0.52892232       1.06411985       0.44829774
C       -0.88106727       0.95573697      -0.03069723
C       -1.12468716      -0.49390805      -0.35631244
C       -0.50102032      -0.79527753       0.87218772
N       -0.52135086       0.62509905       1.37531314
H        0.82540581      -0.60263132      -1.88092290
H        1.79392127      -0.66533920       1.10978968
H        0.97521537       2.05172319       0.46741427
H       -1.50883091       1.80673010      -0.25444860
H       -0.20599270      -0.71963268      -1.92161431
H       -2.05478699      -0.92493071      -0.70214800
H       -0.53667864      -1.64473867       1.54018799
14
Frame=9 idx=010149 GeodesicLength=0.809807070199906 rxn_smarts="[O:1]([C@@:2]1([H:9])[C@@:3]2([H:10])[C@@:4]3([H:11])[C:5]([H:12])([H:13])[C@:6]1([H:14])[N:7]23)[H:8]>>[H:8][H:12].[O:1]=[C:2]([C@@:3]1([H:10])[C@@:4]2([H:11])[C:5]([H:13])=[C:6]([H:14])[N:7]12)[H:9]"
O        1.86434218      -0.48815283      -0.89321183
C        1.35189316      -0.18479572       0.23840599
C        0.52748537       1.05935697       0.44481086
C       -0.88489793       0.95026827      -0.02853321
C       -1.12740460      -0.50065105      -0.35324597
C       -0.50323569      -0.79558852       0.88048514
N       -0.52316758       0.62704250       1.37730699
H        0.86040217      -0.57944946      -1.90680232
H        1.78816777      -0.67327555       1.11590863
H        0.97515959       2.04612601       0.44484984
H       -1.51366481       1.80062353      -0.25221965
H       -0.20143367      -0.69444377      -1.95363903
H       -2.06872151      -0.92927874      -0.67187486
H       -0.54492445      -1.63778165       1.55775943
14
Frame=10 idx=010149 GeodesicLength=0.9004380742924769 rxn_smarts="[O:1]([C@@:2]1([H:9])[C@@:3]2([H:10])[C@@:4]3([H:11])[C:5]([H:12])([H:13])[C@:6]1([H:14])[N:7]23)[H:8]>>[H:8][H:12].[O:1]=[C:2]([C@@:3]1([H:10])[C@@:4]2([H:11])[C:5]([H:13])=[C:6]([H:14])[N:7]12)[H:9]"
O        1.87053590      -0.49923557      -0.88670224
C        1.35002624      -0.19084135       0.24373880
C        0.52594483       1.05430299       0.44100192
C       -0.88888890       0.94449343      -0.02646372
C       -1.13055130      -0.50780315      -0.34974485
C       -0.50565061      -0.79588333       0.88921695
N       -0.52497122       0.62914010       1.37923207
H        0.89748177      -0.55469433      -1.93251378
H        1.78227499      -0.68141678       1.12183332
H        0.97497687       2.03983047       0.42148735
H       -1.51858129       1.79421841      -0.25027506
H       -0.19688542      -0.66798730      -1.98592029
H       -2.08248344      -0.93364725      -0.64081764
H       -0.55322842      -1.63047634       1.57592716
14
Frame=11 idx=010149 GeodesicLength=0.991157124551762 rxn_smarts="[O:1]([C@@:2]1([H:9])[C@@:3]2([H:10])[C@@:4]3([H:11])[C:5]([H:12])([H:13])[C@:6]1([H:14])[N:7]23)[H:8]>>[H:8][H:12].[O:1]=[C:2]([C@@:3]1([H:10])[C@@:4]2([H:11])[C:5]([H:13])=[C:6]([H:14])[N:7]12)[H:9]"
O        1.87598418      -0.51113470      -0.88044932
C        1.34786474      -0.19728000       0.24885647
C        0.52429526       1.04894049       0.43684106
C       -0.89305182       0.93840321      -0.02448756
C       -1.13416960      -0.51537577      -0.34575641
C       -0.50826843      -0.79614957       0.89841078
N       -0.52674707       0.63140907       1.38108052
H        0.93684872      -0.52825710      -1.95797197
H        1.77624029      -0.68978068       1.12753561
H        0.97465542       2.03279431       0.39727352
H       -1.52359198       1.78750500      -0.24861809
H       -0.19240622      -0.64022927      -2.01845757
H       -2.09607529      -0.93805660      -0.60898761
H       -0.56157820      -1.62278839       1.59473055
14
Frame=12 idx=010149 GeodesicLength=1.0819059887642082 rxn_smarts="[O:1]([C@@:2]1([H:9])[C@@:3]2([H:10])[C@@:4]3([H:11])[C:5]([H:12])([H:13])[C@:6]1([H:14])[N:7]23)[H:8]>>[H:8][H:12].[O:1]=[C:2]([C@@:3]1([H:10])[C@@:4]2([H:11])[C:5]([H:13])=[C:6]([H:14])[N:7]12)[H:9]"
O        1.88060909      -0.52389714      -0.87451850
C        1.34538618      -0.20413809       0.25372058
C        0.52252889       1.04325070       0.43229434
C       -0.89740189       0.93198810      -0.02260329
C       -1.13830540      -0.52337786      -0.34122805
C       -0.51109232      -0.79637336       0.90809127
N       -0.52847892       0.63386517       1.38284221
H        0.97873824      -0.50003156      -1.98305384
H        1.77006258      -0.69838846       1.13297233
H        0.97417505       2.02496285       0.37214887
H       -1.52871118       1.78047450      -0.24724680
H       -0.18803666      -0.61113630      -2.05124385
H       -2.10951550      -0.94251973      -0.57638588
H       -0.56995817      -1.61467882       1.61421059
14
Frame=13 idx=010149 GeodesicLength=1.1726200133465903 rxn_smarts="[O:1]([C@@:2]1([H:9])[C@@:3]2([H:10])[C@@:4]3([H:11])[C:5]([H:12])([H:13])[C@:6]1([H:14])[N:7]23)[H:8]>>[H:8][H:12].[O:1]=[C:2]([C@@:3]1([H:10])[C@@:4]2([H:11])[C:5]([H:13])=[C:6]([H:14])[N:7]12)[H:9]"
O        1.88432781      -0.53756520      -0.86897610
C        1.34256853      -0.21144022       0.25828921
C        0.52063590       1.03721179       0.42732234
C       -0.90195790       0.92523685      -0.02081062
C       -1.14300813      -0.53182044      -0.33610609
C       -0.51412315      -0.79654039       0.91828285
N       -0.53014976       0.63652418       1.38450521
H        1.02341497      -0.46994534      -2.00761841
H        1.76374120      -0.70725892       1.13809835
H        0.97352224       2.01629896       0.34606426
H       -1.53395894       1.77311512      -0.24616123
H       -0.18383088      -0.58065710      -2.08429399
H       -2.12283898      -0.94704726      -0.54299410
H       -0.57834293      -1.60611203       1.63439832
14
Frame=14 idx=010149 GeodesicLength=1.2632915143795806 rxn_smarts="[O:1]([C@@:2]1([H:9])[C@@:3]2([H:10])[C@@:4]3([H:11])[C:5]([H:12])([H:13])[C@:6]1([H:14])[N:7]23)[H:8]>>[H:8][H:12].[O:1]=[C:2]([C@@:3]1([H:10])[C@@:4]2([H:11])[C:5]([H:13])=[C:6]([H:14])[N:7]12)[H:9]"
O        1.88703686      -0.55221118      -0.86391529
C        1.33938188      -0.21922416       0.26250609
C        0.51860330       1.03079528       0.42187506
C       -0.90674173       0.91813249      -0.01911342
C       -1.14833457      -0.54071891      -0.33032823
C       -0.51736297      -0.79663634       0.92901180
N       -0.53173818       0.63940318       1.38604773
H        1.07123521      -0.43783606      -2.03147464
H        1.75727593      -0.71642418       1.14284980
H        0.97267238       2.00675058       0.31894100
H       -1.53935799       1.76540972      -0.24536352
H       -0.17986287      -0.54875254      -2.11760940
H       -2.13609695      -0.95164887      -0.50877395
H       -0.58671032      -1.59703900       1.65534697
14
Frame=15 idx=010149 GeodesicLength=1.3538456207282983 rxn_smarts="[O:1]([C@@:2]1([H:9])[C@@:3]2([H:10])[C@@:4]3([H:11])[C:5]([H:12])([H:13])[C@:6]1([H:14])[N:7]23)[H:8]>>[H:8][H:12].[O:1]=[C:2]([C@@:3]1([H:10])[C@@:4]2([H:11])[C:5]([H:13])=[C:6]([H:14])[N:7]12)[H:9]"
O        1.88863245      -0.56789335      -0.85944238
C        1.33579452      -0.22752396       0.26630745
C        0.51641384       1.02397333       0.41589830
C       -0.91178179       0.91065704      -0.01751463
C       -1.15434577      -0.55008822      -0.32383067
C       -0.52081110      -0.79664405       0.94030049
N       -0.53322415       0.64251851       1.38744859
H        1.12257385      -0.40360251      -2.05439403
H        1.75066518      -0.72591531       1.14715186
H        0.97160288       1.99627991       0.29071146
H       -1.54493988       1.75733784      -0.24485116
H       -0.17620720      -0.51536210      -2.15121246
H       -2.14934755      -0.95632631      -0.47366800
H       -0.59502529      -1.58741081       1.67709519
14
Frame=16 idx=010149 GeodesicLength=1.4442036656668258 rxn_smarts="[O:1]([C@@:2]1([H:9])[C@@:3]2([H:10])[C@@:4]3([H:11])[C:5]([H:12])([H:13])[C@:6]1([H:14])[N:7]23)[H:8]>>[H:8][H:12].[O:1]=[C:2]([C@@:3]1([H:10])[C@@:4]2([H:11])[C:5]([H:13])=[C:6]([H:14])[N:7]12)[H:9]"
O        1.88896398      -0.58467575      -0.85570207
C        1.33176697      -0.23637508       0.26960834
C        0.51404467       1.01671679       0.40932584
C       -0.91711582       0.90278970      -0.01601554
C       -1.16111470      -0.55994560      -0.31654490
C       -0.52446345      -0.79654733       0.95217031
N       -0.53458100       0.64588430       1.38868225
H        1.17789955      -0.36715825      -2.07606123
H        1.74391029      -0.73577059       1.15090433
H        0.97028195       1.98485076       0.26128399
H       -1.55075002       1.74887567      -0.24461563
H       -0.17293063      -0.48039202      -2.18512932
H       -2.16267250      -0.96107677      -0.43758839
H       -0.60323930      -1.57717584       1.69968201
