14
Frame=0 idx=007794 GeodesicLength=0.0 rxn_smarts="[C:1]([C:2]1=[C:3]([H:11])[N:4]([H:12])[C:5](=[O:6])[C:7]1([H:13])[H:14])([H:8])([H:9])[H:10]>>[C:1](=[C:2]1[C-:3]=[N+:4]([H:12])[C:5](=[O:6])[C:7]1([H:13])[H:14])([H:8])[H:9].[H:10][H:11]"
C       -1.70061653       0.55618817      -0.57585971
C       -0.53668961       0.05430937      -0.02219174
C        0.33172879       0.78336433       0.77465238
N        1.59210112       0.29561044       0.62581400
C        1.59658400      -0.96519666      -0.00692798
O        2.55348422      -1.66884163      -0.13865210
C        0.13116269      -1.26778829      -0.32884615
H       -2.50903058      -0.13199011      -0.82028906
H       -1.73369944       1.48700345      -1.11861896
H       -1.38410219       2.06452937       0.54158114
H       -0.53344501       1.95299464       0.85718045
H        2.35084805       0.52839420       1.24663188
H       -0.17599518      -2.08885221       0.32474230
H        0.01766965      -1.59972506      -1.35921646
14
Frame=1 idx=007794 GeodesicLength=0.06883745454099317 rxn_smarts="[C:1]([C:2]1=[C:3]([H:11])[N:4]([H:12])[C:5](=[O:6])[C:7]1([H:13])[H:14])([H:8])([H:9])[H:10]>>[C:1](=[C:2]1[C-:3]=[N+:4]([H:12])[C:5](=[O:6])[C:7]1([H:13])[H:14])([H:8])[H:9].[H:10][H:11]"
C       -1.70497936       0.56161974      -0.56929280
C       -0.52353923       0.06453837      -0.04530469
C        0.34570621       0.79793508       0.74978485
N        1.60133135       0.29424849       0.61347245
C        1.59768470      -0.97597196       0.00125961
O        2.54885493      -1.69081892      -0.11343887
C        0.13265859      -1.26728126      -0.32947900
H       -2.49735184      -0.13529596      -0.83979165
H       -1.73892156       1.49128893      -1.11559809
H       -1.41694336       2.05268365       0.56894684
H       -0.54272683       1.95620243       0.88435250
H        2.36414306       0.53667237       1.22543935
H       -0.19065373      -2.07901069       0.32779569
H        0.02473705      -1.60681027      -1.35814619
14
Frame=2 idx=007794 GeodesicLength=0.1375535203810581 rxn_smarts="[C:1]([C:2]1=[C:3]([H:11])[N:4]([H:12])[C:5](=[O:6])[C:7]1([H:13])[H:14])([H:8])([H:9])[H:10]>>[C:1](=[C:2]1[C-:3]=[N+:4]([H:12])[C:5](=[O:6])[C:7]1([H:13])[H:14])([H:8])[H:9].[H:10][H:11]"
C       -1.70863130       0.56699014      -0.56403679
C       -0.50933130       0.07585792      -0.07157400
C        0.36067434       0.81411026       0.72138563
N        1.61094309       0.29322276       0.60025328
C        1.59855715      -0.98656510       0.00991614
O        2.54337412      -1.71300428      -0.08612921
C        0.13410804      -1.26641076      -0.32991219
H       -2.48517834      -0.13729209      -0.85997780
H       -1.74558494       1.49695098      -1.11131631
H       -1.45048352       2.03716104       0.59845683
H       -0.55189164       1.95676138       0.91331707
H        2.37749880       0.54491738       1.20360382
H       -0.20602947      -2.06717383       0.33213675
H        0.03197496      -1.61552579      -1.35612321
14
Frame=3 idx=007794 GeodesicLength=0.2062214289817383 rxn_smarts="[C:1]([C:2]1=[C:3]([H:11])[N:4]([H:12])[C:5](=[O:6])[C:7]1([H:13])[H:14])([H:8])([H:9])[H:10]>>[C:1](=[C:2]1[C-:3]=[N+:4]([H:12])[C:5](=[O:6])[C:7]1([H:13])[H:14])([H:8])[H:9].[H:10][H:11]"
C       -1.71152809       0.57231941      -0.56014421
C       -0.49417300       0.08819702      -0.10107664
C        0.37658080       0.83192644       0.68926868
N        1.62082231       0.29267929       0.58611209
C        1.59909109      -0.99678035       0.01904242
O        2.53691730      -1.73509252      -0.05667832
C        0.13537745      -1.26509836      -0.33002818
H       -2.47255107      -0.13784812      -0.88123982
H       -1.75350319       1.50403725      -1.10576349
H       -1.48433227       2.01744995       0.63013380
H       -0.56057667       1.95399384       0.94430442
H        2.39086501       0.55333535       1.18103347
H       -0.22215225      -2.05313060       0.33794382
H        0.03916258      -1.62598859      -1.35290804
14
Frame=4 idx=007794 GeodesicLength=0.2748776104301358 rxn_smarts="[C:1]([C:2]1=[C:3]([H:11])[N:4]([H:12])[C:5](=[O:6])[C:7]1([H:13])[H:14])([H:8])([H:9])[H:10]>>[C:1](=[C:2]1[C-:3]=[N+:4]([H:12])[C:5](=[O:6])[C:7]1([H:13])[H:14])([H:8])[H:9].[H:10][H:11]"
C       -1.71363512       0.57757116      -0.55752702
C       -0.47836977       0.10125932      -0.13345973
C        0.39314418       0.85113521       0.65371278
N        1.63067160       0.29274910       0.57116029
C        1.59912949      -1.00632433       0.02859013
O        2.52938208      -1.75653644      -0.02526067
C        0.13633198      -1.26327086      -0.32974434
H       -2.45961870      -0.13681828      -0.90363758
H       -1.76220441       1.51236276      -1.09906793
H       -1.51787443       1.99330307       0.66361758
H       -0.56814039       1.94739316       0.97709423
H        2.40401558       0.56211271       1.15773783
H       -0.23890705      -2.03691662       0.34514141
H        0.04607495      -1.63801997      -1.34835699
14
Frame=5 idx=007794 GeodesicLength=0.34343236336565347 rxn_smarts="[C:1]([C:2]1=[C:3]([H:11])[N:4]([H:12])[C:5](=[O:6])[C:7]1([H:13])[H:14])([H:8])([H:9])[H:10]>>[C:1](=[C:2]1[C-:3]=[N+:4]([H:12])[C:5](=[O:6])[C:7]1([H:13])[H:14])([H:8])[H:9].[H:10][H:11]"
C       -1.71505328       0.58263097      -0.55580956
C       -0.46263346       0.11433818      -0.16740833
C        0.40961824       0.87086581       0.61624237
N        1.63997798       0.29346847       0.55586888
C        1.59852824      -1.01488435       0.03846048
O        2.52089330      -1.77653751       0.00740219
C        0.13684913      -1.26098687      -0.32905258
H       -2.44672632      -0.13409622      -0.92689094
H       -1.77080693       1.52134632      -1.09166027
H       -1.55029721       1.96519651       0.69800691
H       -0.57365335       1.93741089       1.01053753
H        2.41670514       0.57145475       1.13378338
H       -0.25592349      -2.01922851       0.35315617
H        0.05252200      -1.65097845      -1.34263622
14
Frame=6 idx=007794 GeodesicLength=0.41173275244868857 rxn_smarts="[C:1]([C:2]1=[C:3]([H:11])[N:4]([H:12])[C:5](=[O:6])[C:7]1([H:13])[H:14])([H:8])([H:9])[H:10]>>[C:1](=[C:2]1[C-:3]=[N+:4]([H:12])[C:5](=[O:6])[C:7]1([H:13])[H:14])([H:8])[H:9].[H:10][H:11]"
C       -1.71586468       0.58737912      -0.55454706
C       -0.44765940       0.12676109      -0.20135985
C        0.42521122       0.89015648       0.57875736
N        1.64827643       0.29474459       0.54075973
C        1.59721396      -1.02224385       0.04849461
O        2.51165869      -1.79445165       0.04045806
C        0.13691287      -1.25832833      -0.32806306
H       -2.43434891      -0.12970428      -0.95005366
H       -1.77824280       1.53020143      -1.08406759
H       -1.58100315       1.93407776       0.73182687
H       -0.57656207       1.92501412       1.04347711
H        2.42869348       0.58133093       1.10930215
H       -0.27277305      -2.00097839       0.36120073
H        0.05848742      -1.66395904      -1.33618541
14
Frame=7 idx=007794 GeodesicLength=0.48015179831102206 rxn_smarts="[C:1]([C:2]1=[C:3]([H:11])[N:4]([H:12])[C:5](=[O:6])[C:7]1([H:13])[H:14])([H:8])([H:9])[H:10]>>[C:1](=[C:2]1[C-:3]=[N+:4]([H:12])[C:5](=[O:6])[C:7]1([H:13])[H:14])([H:8])[H:9].[H:10][H:11]"
C       -1.71616123       0.59183871      -0.55350782
C       -0.43397336       0.13788295      -0.23378240
C        0.43933853       0.90796811       0.54321025
N        1.65539360       0.29652442       0.52596472
C        1.59514638      -1.02849906       0.05882095
O        2.50182926      -1.81014066       0.07358754
C        0.13648591      -1.25554389      -0.32674351
H       -2.42241351      -0.12367905      -0.97338103
H       -1.78367844       1.53879613      -1.07679203
H       -1.61036112       1.90078742       0.76485256
H       -0.57676599       1.91138309       1.07509856
H        2.44043132       0.59217520       1.08325458
H       -0.28927355      -1.98314105       0.36867215
H        0.06400218      -1.67635229      -1.32925452
14
Frame=8 idx=007794 GeodesicLength=0.5486096488652746 rxn_smarts="[C:1]([C:2]1=[C:3]([H:11])[N:4]([H:12])[C:5](=[O:6])[C:7]1([H:13])[H:14])([H:8])([H:9])[H:10]>>[C:1](=[C:2]1[C-:3]=[N+:4]([H:12])[C:5](=[O:6])[C:7]1([H:13])[H:14])([H:8])[H:9].[H:10][H:11]"
C       -1.71610786       0.59601084      -0.55245374
C       -0.42168555       0.14762530      -0.26405534
C        0.45185854       0.92409900       0.51040235
N        1.66139034       0.29856220       0.51182779
C        1.59249875      -1.03378088       0.06929175
O        2.49171510      -1.82371491       0.10625366
C        0.13572879      -1.25274273      -0.32527574
H       -2.41120829      -0.11634503      -0.99595624
H       -1.78703697       1.54678951      -1.07017695
H       -1.63858359       1.86629670       0.79621862
H       -0.57457235       1.89775949       1.10500064
H        2.45192752       0.60346725       1.05608082
H       -0.30516031      -1.96625554       0.37516209
H        0.06923589      -1.68777121      -1.32231970
14
Frame=9 idx=007794 GeodesicLength=0.6170687337168359 rxn_smarts="[C:1]([C:2]1=[C:3]([H:11])[N:4]([H:12])[C:5](=[O:6])[C:7]1([H:13])[H:14])([H:8])([H:9])[H:10]>>[C:1](=[C:2]1[C-:3]=[N+:4]([H:12])[C:5](=[O:6])[C:7]1([H:13])[H:14])([H:8])[H:9].[H:10][H:11]"
C       -1.71577411       0.59993238      -0.55129694
C       -0.41067748       0.15608699      -0.29207488
C        0.46291305       0.93861745       0.48040168
N        1.66643016       0.30070283       0.49844869
C        1.58939654      -1.03822949       0.07982917
O        2.48144840      -1.83539601       0.13825066
C        0.13474086      -1.24996871      -0.32373233
H       -2.40071489      -0.10799421      -1.01746232
H       -1.78847389       1.55414348      -1.06431355
H       -1.66609183       1.83105379       0.82574631
H       -0.57032019       1.88481498       1.13315710
H        2.46322965       0.61483417       1.02800181
H       -0.32040749      -1.95047240       0.38058495
H        0.07430122      -1.69812525      -1.31554036
14
Frame=10 idx=007794 GeodesicLength=0.6855006534809627 rxn_smarts="[C:1]([C:2]1=[C:3]([H:11])[N:4]([H:12])[C:5](=[O:6])[C:7]1([H:13])[H:14])([H:8])([H:9])[H:10]>>[C:1](=[C:2]1[C-:3]=[N+:4]([H:12])[C:5](=[O:6])[C:7]1([H:13])[H:14])([H:8])[H:9].[H:10][H:11]"
C       -1.71520535       0.60366687      -0.55003926
C       -0.40074677       0.16346382      -0.31802606
C        0.47274043       0.95175454       0.45294309
N        1.67070625       0.30285342       0.48581627
C        1.58594416      -1.04198835       0.09040747
O        2.47108025      -1.84547830       0.16962365
C        0.13359750      -1.24723547      -0.32215667
H       -2.39085310      -0.09883579      -1.03782864
H       -1.78828842       1.56094816      -1.05915462
H       -1.69328325       1.79517845       0.85349198
H       -0.56432217       1.87287470       1.15979306
H        2.47441731       0.62603397       0.99911012
H       -0.33507512      -1.93574898       0.38499781
H        0.07928828      -1.70748703      -1.30897820
14
Frame=11 idx=007794 GeodesicLength=0.7538199329150829 rxn_smarts="[C:1]([C:2]1=[C:3]([H:11])[N:4]([H:12])[C:5](=[O:6])[C:7]1([H:13])[H:14])([H:8])([H:9])[H:10]>>[C:1](=[C:2]1[C-:3]=[N+:4]([H:12])[C:5](=[O:6])[C:7]1([H:13])[H:14])([H:8])[H:9].[H:10][H:11]"
C       -1.71443697       0.60725545      -0.54866068
C       -0.39172744       0.16992133      -0.34211503
C        0.48155865       0.96372440       0.42770037
N        1.67435923       0.30493744       0.47396004
C        1.58222326      -1.04516150       0.10099123
O        2.46067389      -1.85416196       0.20031144
C        0.13235951      -1.24454034      -0.32058438
H       -2.38159378      -0.08905816      -1.05693825
H       -1.78671768       1.56724744      -1.05462230
H       -1.72044180       1.75873184       0.87946198
H       -0.55677475       1.86222236       1.18504359
H        2.48546286       0.63681521       0.96965491
H       -0.34919219      -1.92200910       0.38847184
H        0.08424722      -1.71592441      -1.30267474
14
Frame=12 idx=007794 GeodesicLength=0.8222935448095471 rxn_smarts="[C:1]([C:2]1=[C:3]([H:11])[N:4]([H:12])[C:5](=[O:6])[C:7]1([H:13])[H:14])([H:8])([H:9])[H:10]>>[C:1](=[C:2]1[C-:3]=[N+:4]([H:12])[C:5](=[O:6])[C:7]1([H:13])[H:14])([H:8])[H:9].[H:10][H:11]"
C       -1.71341404       0.61083521      -0.54739565
C       -0.38332797       0.17574492      -0.36490702
C        0.48964949       0.97486587       0.40407892
N        1.67759740       0.30703781       0.46247794
C        1.57820889      -1.04785926       0.11178289
O        2.44995382      -1.86180402       0.23121662
C        0.13100891      -1.24182770      -0.31892849
H       -2.37256589      -0.07852376      -1.07558159
H       -1.78407179       1.57354994      -1.05031340
H       -1.74809595       1.72085589       0.90434976
H       -0.54784274       1.85231653       1.20955777
H        2.49671449       0.64741226       0.93873610
H       -0.36303864      -1.90885498       0.39132596
H        0.08922402      -1.72374869      -1.29639980
14
Frame=13 idx=007794 GeodesicLength=0.8907850932558028 rxn_smarts="[C:1]([C:2]1=[C:3]([H:11])[N:4]([H:12])[C:5](=[O:6])[C:7]1([H:13])[H:14])([H:8])([H:9])[H:10]>>[C:1](=[C:2]1[C-:3]=[N+:4]([H:12])[C:5](=[O:6])[C:7]1([H:13])[H:14])([H:8])[H:9].[H:10][H:11]"
C       -1.71216998       0.61441618      -0.54619387
C       -0.37546804       0.18101716      -0.38649480
C        0.49713984       0.98529801       0.38189153
N        1.68048828       0.30910339       0.45145782
C        1.57394804      -1.05011860       0.12274577
O        2.43897294      -1.86845585       0.26221022
C        0.12957277      -1.23909022      -0.31720192
H       -2.36376515      -0.06731499      -1.09369212
H       -1.78048333       1.57984980      -1.04613298
H       -1.77639097       1.68143017       0.92812452
H       -0.53754230       1.84350511       1.23325836
H        2.50808887       0.65759469       0.90659383
H       -0.37661768      -1.89624986       0.39360114
H        0.09422672      -1.73098498      -1.29016751
14
Frame=14 idx=007794 GeodesicLength=0.9593229080523875 rxn_smarts="[C:1]([C:2]1=[C:3]([H:11])[N:4]([H:12])[C:5](=[O:6])[C:7]1([H:13])[H:14])([H:8])([H:9])[H:10]>>[C:1](=[C:2]1[C-:3]=[N+:4]([H:12])[C:5](=[O:6])[C:7]1([H:13])[H:14])([H:8])[H:9].[H:10][H:11]"
C       -1.71070979       0.61803642      -0.54507048
C       -0.36804227       0.18584689      -0.40704596
C        0.50416145       0.99516136       0.36090481
N        1.68310563       0.31112580       0.44086588
C        1.56945701      -1.05197458       0.13389692
O        2.42769344      -1.87420434       0.29341188
C        0.12805766      -1.23630635      -0.31537935
H       -2.35508929      -0.05541579      -1.11142772
H       -1.77608042       1.58626272      -1.04191831
H       -1.80556300       1.64011342       0.95087382
H       -0.52585715       1.83587729       1.25625414
H        2.51959506       0.66727055       0.87313829
H       -0.38998305      -1.88407483       0.39540966
H        0.09925472      -1.73771856      -1.28391358
14
Frame=15 idx=007794 GeodesicLength=1.027917524925218 rxn_smarts="[C:1]([C:2]1=[C:3]([H:11])[N:4]([H:12])[C:5](=[O:6])[C:7]1([H:13])[H:14])([H:8])([H:9])[H:10]>>[C:1](=[C:2]1[C-:3]=[N+:4]([H:12])[C:5](=[O:6])[C:7]1([H:13])[H:14])([H:8])[H:9].[H:10][H:11]"
C       -1.70903517       0.62172846      -0.54403398
C       -0.36096333       0.19032407      -0.42669758
C        0.51082911       1.00457181       0.34092182
N        1.68551264       0.31310320       0.43068096
C        1.56474837      -1.05344899       0.14524598
O        2.41608413      -1.87910631       0.32489641
C        0.12646321      -1.23345380      -0.31342975
H       -2.34644864      -0.04278637      -1.12893218
H       -1.77096578       1.59289497      -1.03750438
H       -1.83582649       1.59649965       0.97265474
H       -0.51272874       1.82958316       1.27858438
H        2.53121766       0.67633442       0.83831931
H       -0.40317757      -1.87222084       0.39686244
H        0.10429060      -1.74402344      -1.27756818
14
Frame=16 idx=007794 GeodesicLength=1.0965701488119226 rxn_smarts="[C:1]([C:2]1=[C:3]([H:11])[N:4]([H:12])[C:5](=[O:6])[C:7]1([H:13])[H:14])([H:8])([H:9])[H:10]>>[C:1](=[C:2]1[C-:3]=[N+:4]([H:12])[C:5](=[O:6])[C:7]1([H:13])[H:14])([H:8])[H:9].[H:10][H:11]"
C       -1.70715160       0.62551583      -0.54307252
C       -0.35416468       0.19451956      -0.44556309
C        0.51725288       1.01363042       0.32174100
N        1.68777606       0.31504435       0.42084986
C        1.55983950      -1.05454886       0.15677265
O        2.40415408      -1.88317880       0.35661581
C        0.12478425      -1.23050984      -0.31131382
H       -2.33777674      -0.02938687      -1.14629507
H       -1.76522598       1.59982782      -1.03273771
H       -1.86736879       1.55017410       0.99346041
H       -0.49803586       1.82483769       1.30021292
H        2.54285128       0.68462596       0.80228845
H       -0.41621797      -1.86058091       0.39808981
H        0.10928358      -1.74997046      -1.27104868
