11
Frame=0 idx=005448 GeodesicLength=0.0 rxn_smarts="[O:1]=[C:2]1[N:3]([H:7])[C:4]([H:8])([H:9])[C:5]([H:10])([H:11])[O:6]1>>[N:3]1([H:7])[C:4]([H:8])([H:9])[C:5]1([H:10])[H:11].[O:1]=[C:2]=[O:6]"
O        2.63382688      -0.24482316      -0.28326672
C        1.48359420       0.08396150      -0.46948114
N        0.49648959      -0.43580840       0.49608402
C       -0.87129513      -0.63485585       0.06369337
C       -0.95049542       0.81625542       0.03723049
O        0.89993341       0.81326122      -1.30394315
H        0.81639400      -0.86518847       1.35275794
H       -0.97317197      -1.14358984      -0.89104352
H       -1.45375850      -1.11258439       0.84891770
H       -0.99649342       1.31188172       0.99785458
H       -1.08502360       1.41149026      -0.84880352
11
Frame=1 idx=005448 GeodesicLength=0.07004818589563439 rxn_smarts="[O:1]=[C:2]1[N:3]([H:7])[C:4]([H:8])([H:9])[C:5]([H:10])([H:11])[O:6]1>>[N:3]1([H:7])[C:4]([H:8])([H:9])[C:5]1([H:10])[H:11].[O:1]=[C:2]=[O:6]"
O        2.64654485      -0.23423782      -0.28793991
C        1.49574295       0.07972867      -0.48077990
N        0.49268761      -0.44008628       0.49918027
C       -0.87477411      -0.63814276       0.06556237
C       -0.93356465       0.81637664       0.03786997
O        0.90315592       0.82288063      -1.29718435
H        0.80788437      -0.87133302       1.35638788
H       -0.97792121      -1.14679711      -0.88913609
H       -1.46567825      -1.10728318       0.84949704
H       -0.99603743       1.31589325       0.99582642
H       -1.09804005       1.40300098      -0.84928370
11
Frame=2 idx=005448 GeodesicLength=0.14007743713689536 rxn_smarts="[O:1]=[C:2]1[N:3]([H:7])[C:4]([H:8])([H:9])[C:5]([H:10])([H:11])[O:6]1>>[N:3]1([H:7])[C:4]([H:8])([H:9])[C:5]1([H:10])[H:11].[O:1]=[C:2]=[O:6]"
O        2.65911480      -0.22435358      -0.29341831
C        1.50812187       0.07610010      -0.49202751
N        0.48882415      -0.44422918       0.50250897
C       -0.87821776      -0.64139478       0.06742632
C       -0.91686444       0.81629753       0.03832775
O        0.90654567       0.83252124      -1.29016988
H        0.79924102      -0.87717160       1.36032630
H       -0.98236473      -1.15010277      -0.88719330
H       -1.47764217      -1.10185390       0.84988074
H       -0.99596548       1.31978643       0.99329785
H       -1.11079294       1.39440051      -0.84895893
11
Frame=3 idx=005448 GeodesicLength=0.21008621798826801 rxn_smarts="[O:1]=[C:2]1[N:3]([H:7])[C:4]([H:8])([H:9])[C:5]([H:10])([H:11])[O:6]1>>[N:3]1([H:7])[C:4]([H:8])([H:9])[C:5]1([H:10])[H:11].[O:1]=[C:2]=[O:6]"
O        2.67155331      -0.21535101      -0.29982327
C        1.52073802       0.07319999      -0.50314207
N        0.48488831      -0.44819804       0.50611560
C       -0.88161353      -0.64462310       0.06928415
C       -0.90043865       0.81601644       0.03861531
O        0.91009069       0.84222770      -1.28288090
H        0.79044969      -0.88267691       1.36461357
H       -0.98644067      -1.15351983      -0.88522145
H       -1.48964586      -1.09633250       0.85004039
H       -0.99628593       1.32356253       0.99026994
H       -1.12329538       1.38569474      -0.84787129
11
Frame=4 idx=005448 GeodesicLength=0.2800758476066706 rxn_smarts="[O:1]=[C:2]1[N:3]([H:7])[C:4]([H:8])([H:9])[C:5]([H:10])([H:11])[O:6]1>>[N:3]1([H:7])[C:4]([H:8])([H:9])[C:5]1([H:10])[H:11].[O:1]=[C:2]=[O:6]"
O        2.68390871      -0.20718595      -0.30713011
C        1.53358150       0.07103653      -0.51412937
N        0.48086516      -0.45200311       0.51000885
C       -0.88497237      -0.64783766       0.07113782
C       -0.88429954       0.81553617       0.03874931
O        0.91376919       0.85199120      -1.27533898
H        0.78149321      -0.88787174       1.36925254
H       -0.99016238      -1.15705565      -0.88322045
H       -1.50170427      -1.09073132       0.84996727
H       -0.99693829       1.32722500       0.98675674
H       -1.13554091       1.37689652      -0.84605361
11
Frame=5 idx=005448 GeodesicLength=0.3500483649502248 rxn_smarts="[O:1]=[C:2]1[N:3]([H:7])[C:4]([H:8])([H:9])[C:5]([H:10])([H:11])[O:6]1>>[N:3]1([H:7])[C:4]([H:8])([H:9])[C:5]1([H:10])[H:11].[O:1]=[C:2]=[O:6]"
O        2.69623337      -0.19970526      -0.31524375
C        1.54663677       0.06956202      -0.52503891
N        0.47673847      -0.45567709       0.51417848
C       -0.88831730      -0.65104740       0.07299086
C       -0.86844310       0.81485887       0.03874652
O        0.91755765       0.86177929      -1.26758004
H        0.77235320      -0.89280151       1.37422672
H       -0.99358015      -1.16071411      -0.88118627
H       -1.51384095      -1.08504957       0.84966333
H       -0.99782393       1.33077779       0.98277885
H       -1.14751403       1.36801698      -0.84353580
11
Frame=6 idx=005448 GeodesicLength=0.4200309048555809 rxn_smarts="[O:1]=[C:2]1[N:3]([H:7])[C:4]([H:8])([H:9])[C:5]([H:10])([H:11])[O:6]1>>[N:3]1([H:7])[C:4]([H:8])([H:9])[C:5]1([H:10])[H:11].[O:1]=[C:2]=[O:6]"
O        2.70858907      -0.19271577      -0.32404804
C        1.55989876       0.06870868      -0.53593835
N        0.47249550      -0.45926348       0.51861173
C       -0.89167851      -0.65426065       0.07484861
C       -0.85286068       0.81398894       0.03862019
O        0.92143807       0.87154700      -1.25965871
H        0.76301425      -0.89752668       1.37952283
H       -0.99675854      -1.16449783      -0.87911566
H       -1.52608957      -1.07928215       0.84914083
H       -0.99884514       1.33422198       0.97836594
H       -1.15920321       1.35907996      -0.84034936
11
Frame=7 idx=005448 GeodesicLength=0.489938459075904 rxn_smarts="[O:1]=[C:2]1[N:3]([H:7])[C:4]([H:8])([H:9])[C:5]([H:10])([H:11])[O:6]1>>[N:3]1([H:7])[C:4]([H:8])([H:9])[C:5]1([H:10])[H:11].[O:1]=[C:2]=[O:6]"
O        2.72094703      -0.18606743      -0.33345229
C        1.57331851       0.06840196      -0.54688494
N        0.46811329      -0.46278157       0.52329028
C       -0.89505301      -0.65748259       0.07671160
C       -0.83752782       0.81292259       0.03838958
O        0.92537692       0.88125646      -1.25156794
H        0.75344411      -0.90206575       1.38510015
H       -0.99971483      -1.16841776      -0.87699397
H       -1.53843398      -1.07341243       0.84838193
H       -0.99990967       1.33756431       0.97353125
H       -1.17056055       1.35008219      -0.83650564
11
Frame=8 idx=005448 GeodesicLength=0.5598771373328029 rxn_smarts="[O:1]=[C:2]1[N:3]([H:7])[C:4]([H:8])([H:9])[C:5]([H:10])([H:11])[O:6]1>>[N:3]1([H:7])[C:4]([H:8])([H:9])[C:5]1([H:10])[H:11].[O:1]=[C:2]=[O:6]"
O        2.73340300      -0.17962435      -0.34338435
C        1.58693118       0.06861160      -0.55793315
N        0.46358828      -0.46627086       0.52821558
C       -0.89848701      -0.66072384       0.07858648
C       -0.82244794       0.81166120       0.03805473
O        0.92938376       0.89089690      -1.24336304
H        0.74363670      -0.90646859       1.39098182
H       -1.00252463      -1.17247126      -0.87482562
H       -1.55093784      -1.06744779       0.84740836
H       -1.00092929       1.34079649       0.96831488
H       -1.18161622       1.34104050      -0.83205567
11
Frame=9 idx=005448 GeodesicLength=0.629772697993125 rxn_smarts="[O:1]=[C:2]1[N:3]([H:7])[C:4]([H:8])([H:9])[C:5]([H:10])([H:11])[O:6]1>>[N:3]1([H:7])[C:4]([H:8])([H:9])[C:5]1([H:10])[H:11].[O:1]=[C:2]=[O:6]"
O        2.74592225      -0.17329962      -0.35378715
C        1.60070395       0.06929690      -0.56911825
N        0.45890007      -0.46974210       0.53337753
C       -0.90197355      -0.66398703       0.08047089
C       -0.80761005       0.81020409       0.03762694
O        0.93342909       0.90043389      -1.23503990
H        0.73356234      -0.91074109       1.39714367
H       -1.00518241      -1.17666537      -0.87260502
H       -1.56357747      -1.06137651       0.84620338
H       -1.00183446       1.34392389       0.96274464
H       -1.19233974       1.33195296      -0.82701672
11
Frame=10 idx=005448 GeodesicLength=0.6996738067649082 rxn_smarts="[O:1]=[C:2]1[N:3]([H:7])[C:4]([H:8])([H:9])[C:5]([H:10])([H:11])[O:6]1>>[N:3]1([H:7])[C:4]([H:8])([H:9])[C:5]1([H:10])[H:11].[O:1]=[C:2]=[O:6]"
O        2.75854788      -0.16701513      -0.36462996
C        1.61464935       0.07042976      -0.58048977
N        0.45404232      -0.47321144       0.53878726
C       -0.90553608      -0.66728143       0.08237146
C       -0.79301381       0.80854990       0.03711174
O        0.93751953       0.90987130      -1.22661731
H        0.72321164      -0.91490614       1.40360637
H       -1.00772514      -1.18100368      -0.87033067
H       -1.57638520      -1.05520869       0.84477328
H       -1.00258167       1.34693904       0.95685136
H       -1.20272884       1.32283650      -0.82143377
11
Frame=11 idx=005448 GeodesicLength=0.7695633131857635 rxn_smarts="[O:1]=[C:2]1[N:3]([H:7])[C:4]([H:8])([H:9])[C:5]([H:10])([H:11])[O:6]1>>[N:3]1([H:7])[C:4]([H:8])([H:9])[C:5]1([H:10])[H:11].[O:1]=[C:2]=[O:6]"
O        2.77127655      -0.16071358      -0.37588600
C        1.62875811       0.07198892      -0.59208294
N        0.44900132      -0.47668657       0.54444695
C       -0.90917874      -0.67061213       0.08428974
C       -0.77865236       0.80669575       0.03651475
O        0.94164589       0.91920039      -1.21809064
H        0.71256139      -0.91896923       1.41036899
H       -1.01015855      -1.18549317      -0.86799642
H       -1.58936224      -1.04894035       0.84310801
H       -1.00312030       1.34983914       0.95066398
H       -1.21277106       1.31369083      -0.81533643
11
Frame=12 idx=005448 GeodesicLength=0.8394300969398779 rxn_smarts="[O:1]=[C:2]1[N:3]([H:7])[C:4]([H:8])([H:9])[C:5]([H:10])([H:11])[O:6]1>>[N:3]1([H:7])[C:4]([H:8])([H:9])[C:5]1([H:10])[H:11].[O:1]=[C:2]=[O:6]"
O        2.78409977      -0.15437235      -0.38754965
C        1.64302122       0.07396414      -0.60392944
N        0.44376621      -0.48016578       0.55037054
C       -0.91290355      -0.67398438       0.08622795
C       -0.76451987       0.80464349       0.03584314
O        0.94580379       0.92842542      -1.20945184
H        0.70159511      -0.92293146       1.41744295
H       -1.01248157      -1.19014056      -0.86559967
H       -1.60250547      -1.04258118       0.84119801
H       -1.00342525       1.35262057       0.94420938
H       -1.22245038       1.30452209      -0.80876137
11
Frame=13 idx=005448 GeodesicLength=0.9092870017652255 rxn_smarts="[O:1]=[C:2]1[N:3]([H:7])[C:4]([H:8])([H:9])[C:5]([H:10])([H:11])[O:6]1>>[N:3]1([H:7])[C:4]([H:8])([H:9])[C:5]1([H:10])[H:11].[O:1]=[C:2]=[O:6]"
O        2.79704269      -0.14792315      -0.39959502
C        1.65745179       0.07634533      -0.61606464
N        0.43832497      -0.48366565       0.55655425
C       -0.91672506      -0.67739979       0.08818890
C       -0.75061289       0.80238351       0.03509666
O        0.94999393       0.93752891      -1.20070350
H        0.69028594      -0.92680341       1.42482725
H       -1.01470982      -1.19494527      -0.86313154
H       -1.61583597      -1.03611137       0.83903951
H       -1.00344157       1.35527320       0.93752353
H       -1.23177401       1.29531769      -0.80173541
11
Frame=14 idx=005448 GeodesicLength=0.9791363685866898 rxn_smarts="[O:1]=[C:2]1[N:3]([H:7])[C:4]([H:8])([H:9])[C:5]([H:10])([H:11])[O:6]1>>[N:3]1([H:7])[C:4]([H:8])([H:9])[C:5]1([H:10])[H:11].[O:1]=[C:2]=[O:6]"
O        2.81010509      -0.14135599      -0.41202586
C        1.67204421       0.07911318      -0.62853554
N        0.43267200      -0.48718765       0.56302230
C       -0.92064348      -0.68086689       0.09017630
C       -0.73692913       0.79992160       0.03428540
O        0.95421882       0.94652724      -1.19183921
H        0.67862698      -0.93058837       1.43255397
H       -1.01683942      -1.19991694      -0.86059893
H       -1.62935305      -1.02954815       0.83662630
H       -1.00317372       1.35780230       0.93063951
H       -1.24072830       1.28609969      -0.79430423
11
Frame=15 idx=005448 GeodesicLength=1.0489608532214476 rxn_smarts="[O:1]=[C:2]1[N:3]([H:7])[C:4]([H:8])([H:9])[C:5]([H:10])([H:11])[O:6]1>>[N:3]1([H:7])[C:4]([H:8])([H:9])[C:5]1([H:10])[H:11].[O:1]=[C:2]=[O:6]"
O        2.82325912      -0.13463977      -0.42484785
C        1.68678607       0.08228309      -0.64135977
N        0.42678666      -0.49072909       0.56977327
C       -0.92466258      -0.68439117       0.09219052
C       -0.72344378       0.79724313       0.03340702
O        0.95847940       0.95541913      -1.18282440
H        0.66657319      -0.93426433       1.44061427
H       -1.01887349      -1.20506879      -0.85797720
H       -1.64305657      -1.02288470       0.83393423
H       -1.00255659       1.36018975       0.92357050
H       -1.24929144       1.27684274      -0.78648058
11
Frame=16 idx=005448 GeodesicLength=1.1187865087976263 rxn_smarts="[O:1]=[C:2]1[N:3]([H:7])[C:4]([H:8])([H:9])[C:5]([H:10])([H:11])[O:6]1>>[N:3]1([H:7])[C:4]([H:8])([H:9])[C:5]1([H:10])[H:11].[O:1]=[C:2]=[O:6]"
O        2.83653397      -0.12781520      -0.43810838
C        1.70169347       0.08585371      -0.65458286
N        0.42066890      -0.49428753       0.57684124
C       -0.92878141      -0.68797702       0.09423675
C       -0.71017249       0.79435401       0.03247177
O        0.96279265       0.96424135      -1.17363553
H        0.65411693      -0.93783232       1.44905810
H       -1.02078733      -1.21040592      -0.85527614
H       -1.65695871      -1.01612802       0.83095712
H       -1.00163144       1.36243816       0.91635589
H       -1.25747456       1.26755876      -0.77831798
