16
Frame=0 idx=008005 GeodesicLength=0.0 rxn_smarts="[C:1]([C:2]#[C:3][C:4]([C@@:5]1([H:13])[C:6]([H:14])([H:15])[N:7]1[H:16])([H:11])[H:12])([H:8])([H:9])[H:10]>>[C:1]([C:2]#[C:3][N:7]([C:6]([C:5](=[C:4]([H:11])[H:12])[H:13])([H:14])[H:15])[H:16])([H:8])([H:9])[H:10]"
C        2.62731877       0.71318319       0.03246472
C        1.60265084      -0.33616220       0.29606355
C        0.33851556      -0.36354207       0.05031510
C       -0.69683762      -1.55328961       0.04551486
C       -1.85423576      -0.75263091      -0.36416331
C       -1.85847555       0.52302971       0.37427516
N       -0.60239882       0.67727866      -0.34013120
H        2.33988537       1.51584955      -0.66373493
H        3.54781925       0.26775254      -0.35330866
H        2.90721641       1.18335120       0.98002873
H       -0.79937044      -1.95175637       1.05760273
H       -0.41936284      -2.34551800      -0.64446698
H       -2.43605226      -0.87796593      -1.26656458
H       -1.75451591       0.47629215       1.46172537
H       -2.60594360       1.24787611       0.06242120
H       -0.33621336       1.57625197      -0.72804171
16
Frame=1 idx=008005 GeodesicLength=0.14612472979767985 rxn_smarts="[C:1]([C:2]#[C:3][C:4]([C@@:5]1([H:13])[C:6]([H:14])([H:15])[N:7]1[H:16])([H:11])[H:12])([H:8])([H:9])[H:10]>>[C:1]([C:2]#[C:3][N:7]([C:6]([C:5](=[C:4]([H:11])[H:12])[H:13])([H:14])[H:15])[H:16])([H:8])([H:9])[H:10]"
C        2.65101608       0.72104214       0.06278615
C        1.61805451      -0.33461653       0.24454235
C        0.35591671      -0.36276410       0.01779375
C       -0.70589640      -1.56436581       0.04150842
C       -1.86532124      -0.75618902      -0.33418132
C       -1.85136946       0.53513180       0.37673687
N       -0.62518094       0.67771279      -0.38988203
H        2.37349019       1.56610209      -0.58481851
H        3.57277582       0.29416759      -0.34060943
H        2.92175736       1.13011374       1.04078412
H       -0.78594837      -1.96965610       1.05256098
H       -0.44998152      -2.35382446      -0.66042865
H       -2.48555257      -0.90092983      -1.20796124
H       -1.69771555       0.52002240       1.45869924
H       -2.61706184       1.24733488       0.08031446
H       -0.40898278       1.55071842      -0.85784517
16
Frame=2 idx=008005 GeodesicLength=0.2912177506686058 rxn_smarts="[C:1]([C:2]#[C:3][C:4]([C@@:5]1([H:13])[C:6]([H:14])([H:15])[N:7]1[H:16])([H:11])[H:12])([H:8])([H:9])[H:10]>>[C:1]([C:2]#[C:3][N:7]([C:6]([C:5](=[C:4]([H:11])[H:12])[H:13])([H:14])[H:15])[H:16])([H:8])([H:9])[H:10]"
C        2.67458381       0.72709793       0.09237703
C        1.63336022      -0.32832242       0.19542310
C        0.37370777      -0.35933062      -0.01376906
C       -0.71344310      -1.57396955       0.03765838
C       -1.87355187      -0.75854206      -0.30544850
C       -1.84469421       0.54748759       0.37775320
N       -0.64995563       0.67939152      -0.43857023
H        2.40653892       1.61022620      -0.50576167
H        3.59714732       0.31809104      -0.32739938
H        2.93674435       1.07542246       1.09587019
H       -0.77210956      -1.98682941       1.04664478
H       -0.47774503      -2.35958656      -0.67595218
H       -2.53036422      -0.92242988      -1.14893016
H       -1.64283246       0.56373454       1.45119766
H       -2.62846493       1.24642365       0.09767357
H       -0.48892138       1.52113558      -0.97876674
16
Frame=3 idx=008005 GeodesicLength=0.43594907750522527 rxn_smarts="[C:1]([C:2]#[C:3][C:4]([C@@:5]1([H:13])[C:6]([H:14])([H:15])[N:7]1[H:16])([H:11])[H:12])([H:8])([H:9])[H:10]>>[C:1]([C:2]#[C:3][N:7]([C:6]([C:5](=[C:4]([H:11])[H:12])[H:13])([H:14])[H:15])[H:16])([H:8])([H:9])[H:10]"
C        2.69812522       0.73164605       0.12209165
C        1.64858102      -0.31761534       0.14677369
C        0.39195095      -0.35350925      -0.04675055
C       -0.71958976      -1.58240185       0.03384415
C       -1.87948526      -0.75997697      -0.27723042
C       -1.83804647       0.56046625       0.37731106
N       -0.67715481       0.68190593      -0.48794096
H        2.43999523       1.64988129      -0.42432442
H        3.62133374       0.34074390      -0.31305250
H        2.95148951       1.01771086       1.14720933
H       -0.75695511      -2.00296513       1.04020239
H       -0.50364335      -2.36372822      -0.69105710
H       -2.57196830      -0.94332969      -1.08793295
H       -1.58834399       0.60861046       1.43915904
H       -2.63998336       1.24547059       0.11500062
H       -0.57630526       1.48709113      -1.09330303
16
Frame=4 idx=008005 GeodesicLength=0.5814570861670697 rxn_smarts="[C:1]([C:2]#[C:3][C:4]([C@@:5]1([H:13])[C:6]([H:14])([H:15])[N:7]1[H:16])([H:11])[H:12])([H:8])([H:9])[H:10]>>[C:1]([C:2]#[C:3][N:7]([C:6]([C:5](=[C:4]([H:11])[H:12])[H:13])([H:14])[H:15])[H:16])([H:8])([H:9])[H:10]"
C        2.72202605       0.73460229       0.15176573
C        1.66360878      -0.30213352       0.09943839
C        0.41063814      -0.34511843      -0.08166926
C       -0.72413832      -1.58998817       0.02962968
C       -1.88328546      -0.76062500      -0.24959575
C       -1.83202278       0.57403916       0.37587040
N       -0.70729437       0.68557415      -0.53794992
H        2.47584651       1.68367830      -0.34373306
H        3.64630316       0.36025496      -0.29497049
H        2.96465980       0.95978306       1.19434851
H       -0.74036232      -2.01887863       1.03288329
H       -0.52720233      -2.36649631      -0.70659834
H       -2.61026692      -0.96358403      -1.02510589
H       -1.53504209       0.65434633       1.42315173
H       -2.65234635       1.24463566       0.13313502
H       -0.67112151       1.44991018      -1.20060001
16
Frame=5 idx=008005 GeodesicLength=0.7245306621327008 rxn_smarts="[C:1]([C:2]#[C:3][C:4]([C@@:5]1([H:13])[C:6]([H:14])([H:15])[N:7]1[H:16])([H:11])[H:12])([H:8])([H:9])[H:10]>>[C:1]([C:2]#[C:3][N:7]([C:6]([C:5](=[C:4]([H:11])[H:12])[H:13])([H:14])[H:15])[H:16])([H:8])([H:9])[H:10]"
C        2.74474586       0.73615257       0.18378449
C        1.67887920      -0.28236968       0.04594143
C        0.42976122      -0.33455897      -0.12227988
C       -0.72729973      -1.59552575       0.02679389
C       -1.88494393      -0.76030227      -0.22073125
C       -1.82403229       0.58923829       0.37067680
N       -0.74068732       0.68775222      -0.59290081
H        2.50780347       1.71916871      -0.24445981
H        3.66902273       0.38640091      -0.28255706
H        2.97980519       0.88487854       1.24158323
H       -0.72003929      -2.02992087       1.02701227
H       -0.55128050      -2.36845605      -0.71847611
H       -2.64723350      -0.98505760      -0.95573593
H       -1.47794334       0.70516966       1.39867974
H       -2.66282035       1.24380614       0.14928156
H       -0.77373743       1.40362413      -1.30661256
16
Frame=6 idx=008005 GeodesicLength=0.8679646285505626 rxn_smarts="[C:1]([C:2]#[C:3][C:4]([C@@:5]1([H:13])[C:6]([H:14])([H:15])[N:7]1[H:16])([H:11])[H:12])([H:8])([H:9])[H:10]>>[C:1]([C:2]#[C:3][N:7]([C:6]([C:5](=[C:4]([H:11])[H:12])[H:13])([H:14])[H:15])[H:16])([H:8])([H:9])[H:10]"
C        2.76795465       0.73579047       0.21522490
C        1.69350965      -0.25661558      -0.00376227
C        0.44907161      -0.32060537      -0.16406356
C       -0.72848932      -1.59995051       0.02320460
C       -1.88416373      -0.75915612      -0.19318739
C       -1.81746848       0.60457149       0.36449669
N       -0.77773937       0.69106535      -0.64744966
H        2.54362205       1.74631760      -0.15003755
H        3.69312219       0.40672234      -0.26441088
H        2.99209536       0.81302005       1.28300503
H       -0.69848674      -2.04097346       1.01960627
H       -0.57198390      -2.36837480      -0.73138404
H       -2.67970606      -1.00567487      -0.88524713
H       -1.42388160       0.75606508       1.36998283
H       -2.67464032       1.24249997       0.16637324
H       -0.88281597       1.35529838      -1.40235110
16
Frame=7 idx=008005 GeodesicLength=1.0108549054771596 rxn_smarts="[C:1]([C:2]#[C:3][C:4]([C@@:5]1([H:13])[C:6]([H:14])([H:15])[N:7]1[H:16])([H:11])[H:12])([H:8])([H:9])[H:10]>>[C:1]([C:2]#[C:3][N:7]([C:6]([C:5](=[C:4]([H:11])[H:12])[H:13])([H:14])[H:15])[H:16])([H:8])([H:9])[H:10]"
C        2.79106288       0.73351905       0.24683843
C        1.70754321      -0.22502474      -0.05183619
C        0.46855523      -0.30329643      -0.20777664
C       -0.72771941      -1.60285750       0.01969997
C       -1.88090320      -0.75712586      -0.16652491
C       -1.81169933       0.62047307       0.35623816
N       -0.81856124       0.69442036      -0.70289067
H        2.58089841       1.76769188      -0.05276151
H        3.71667935       0.42486604      -0.24497704
H        3.00372534       0.73786135       1.31955337
H       -0.67513527      -2.05034533       1.01178546
H       -0.59000952      -2.36658932      -0.74365731
H       -2.70775433      -1.02604380      -0.81262260
H       -1.37195552       0.80865852       1.33551162
H       -2.68698109       1.24076918       0.18307437
H       -0.99774550       1.30302353      -1.48965451
16
Frame=8 idx=008005 GeodesicLength=1.1534147198197229 rxn_smarts="[C:1]([C:2]#[C:3][C:4]([C@@:5]1([H:13])[C:6]([H:14])([H:15])[N:7]1[H:16])([H:11])[H:12])([H:8])([H:9])[H:10]>>[C:1]([C:2]#[C:3][N:7]([C:6]([C:5](=[C:4]([H:11])[H:12])[H:13])([H:14])[H:15])[H:16])([H:8])([H:9])[H:10]"
C        2.81412929       0.72938980       0.27823556
C        1.72080417      -0.18740811      -0.09714633
C        0.48817555      -0.28239505      -0.25293140
C       -0.72491536      -1.60441451       0.01583141
C       -1.87518124      -0.75427503      -0.14105539
C       -1.80709118       0.63665146       0.34639753
N       -0.86329817       0.69787785      -0.75839447
H        2.62124382       1.78259240       0.04286682
H        3.74046061       0.43808291      -0.22212504
H        3.01249644       0.66305562       1.35135716
H       -0.65019780      -2.05876689       1.00293778
H       -0.60501760      -2.36292339      -0.75618647
H       -2.73093788      -1.04590982      -0.73851092
H       -1.32308415       0.86223457       1.29592530
H       -2.70003319       1.23842922       0.20007037
H       -1.11755332       1.24777898      -1.56727190
16
Frame=9 idx=008005 GeodesicLength=1.295244613328712 rxn_smarts="[C:1]([C:2]#[C:3][C:4]([C@@:5]1([H:13])[C:6]([H:14])([H:15])[N:7]1[H:16])([H:11])[H:12])([H:8])([H:9])[H:10]>>[C:1]([C:2]#[C:3][N:7]([C:6]([C:5](=[C:4]([H:11])[H:12])[H:13])([H:14])[H:15])[H:16])([H:8])([H:9])[H:10]"
C        2.83622198       0.72270530       0.31084243
C        1.73362134      -0.14267057      -0.14426530
C        0.50802230      -0.25773441      -0.30212784
C       -0.71962890      -1.60359140       0.01337070
C       -1.86675164      -0.75003758      -0.11552886
C       -1.80277656       0.65438217       0.33264856
N       -0.91264397       0.69964695      -0.81697454
H        2.65855654       1.79248277       0.15420770
H        3.76219873       0.45601792      -0.20355996
H        3.02313048       0.57359402       1.37757354
H       -0.62178816      -2.06279338       0.99558277
H       -0.61763804      -2.35795261      -0.76551742
H       -2.74971859      -1.06598509      -0.65944012
H       -1.27554485       0.92034859       1.24742058
H       -2.71295447       1.23615905       0.21484498
H       -1.24230619       1.18542828      -1.63907722
16
Frame=10 idx=008005 GeodesicLength=1.4366659191439173 rxn_smarts="[C:1]([C:2]#[C:3][C:4]([C@@:5]1([H:13])[C:6]([H:14])([H:15])[N:7]1[H:16])([H:11])[H:12])([H:8])([H:9])[H:10]>>[C:1]([C:2]#[C:3][N:7]([C:6]([C:5](=[C:4]([H:11])[H:12])[H:13])([H:14])[H:15])[H:16])([H:8])([H:9])[H:10]"
C        2.85876394       0.71422098       0.34224970
C        1.74508054      -0.09124242      -0.18464543
C        0.52784696      -0.22866212      -0.34967353
C       -0.71239068      -1.60142418       0.01047197
C       -1.85604570      -0.74508989      -0.09247398
C       -1.80109657       0.67162235       0.31763665
N       -0.96572427       0.70141288      -0.87346124
H        2.70114557       1.79462362       0.25853974
H        3.78423639       0.46566015      -0.18168303
H        3.03075722       0.48900677       1.39781814
H       -0.59336712      -2.06665000       0.98695516
H       -0.62594047      -2.35050963      -0.77570763
H       -2.76230318      -1.08515845      -0.58170509
H       -1.23469729       0.97795114       1.19498542
H       -2.72756308       1.23251214       0.22951727
H       -1.36870224       1.12172667      -1.69882411
16
Frame=11 idx=008005 GeodesicLength=1.577948154823458 rxn_smarts="[C:1]([C:2]#[C:3][C:4]([C@@:5]1([H:13])[C:6]([H:14])([H:15])[N:7]1[H:16])([H:11])[H:12])([H:8])([H:9])[H:10]>>[C:1]([C:2]#[C:3][N:7]([C:6]([C:5](=[C:4]([H:11])[H:12])[H:13])([H:14])[H:15])[H:16])([H:8])([H:9])[H:10]"
C        2.88095938       0.70309201       0.37367684
C        1.75540329      -0.03187247      -0.22189748
C        0.54787995      -0.19504788      -0.39794987
C       -0.70268630      -1.59706990       0.00889610
C       -1.84293139      -0.73879482      -0.07066532
C       -1.80144321       0.68980181       0.29934570
N       -1.02309608       0.70150104      -0.93077799
H        2.74314313       1.78874159       0.37246997
H        3.80433117       0.47695046      -0.16359063
H        3.04034617       0.39513246       1.40995495
H       -0.56312674      -2.06729343       0.97976912
H       -0.63023450      -2.34139239      -0.78366030
H       -2.76922987      -1.10390528      -0.50213815
H       -1.19920227       1.03862579       1.13542303
H       -2.74338627       1.22856107       0.24183880
H       -1.49672648       1.05296995      -1.75069477
16
Frame=12 idx=008005 GeodesicLength=1.7184569893003028 rxn_smarts="[C:1]([C:2]#[C:3][C:4]([C@@:5]1([H:13])[C:6]([H:14])([H:15])[N:7]1[H:16])([H:11])[H:12])([H:8])([H:9])[H:10]>>[C:1]([C:2]#[C:3][N:7]([C:6]([C:5](=[C:4]([H:11])[H:12])[H:13])([H:14])[H:15])[H:16])([H:8])([H:9])[H:10]"
C        2.90384235       0.69068278       0.40353877
C        1.76370807       0.03459331      -0.24977008
C        0.56792405      -0.15645733      -0.44309410
C       -0.69140738      -1.59142936       0.00636275
C       -1.82808147      -0.73202683      -0.05193396
C       -1.80492117       0.70658786       0.28036271
N       -1.08376976       0.70110363      -0.98480376
H        2.79376091       1.77674596       0.47405377
H        3.82488675       0.47535445      -0.14212499
H        3.04458758       0.31085219       1.41829360
H       -0.53387323      -2.06841582       0.97055888
H       -0.63010904      -2.32918109      -0.79351391
H       -2.77006597      -1.12158216      -0.42545387
H       -1.17179661       1.09735432       1.07321525
H       -2.76101645       1.22220665       0.25452735
H       -1.62366865       0.98361143      -1.79021842
16
Frame=13 idx=008005 GeodesicLength=1.8591237744192126 rxn_smarts="[C:1]([C:2]#[C:3][C:4]([C@@:5]1([H:13])[C:6]([H:14])([H:15])[N:7]1[H:16])([H:11])[H:12])([H:8])([H:9])[H:10]>>[C:1]([C:2]#[C:3][N:7]([C:6]([C:5](=[C:4]([H:11])[H:12])[H:13])([H:14])[H:15])[H:16])([H:8])([H:9])[H:10]"
C        2.92726352       0.67533585       0.43275992
C        1.76997566       0.10966908      -0.26963603
C        0.58832129      -0.11272438      -0.48518978
C       -0.67826638      -1.58332187       0.00686760
C       -1.81173976      -0.72361943      -0.03522736
C       -1.81198125       0.72439308       0.25721093
N       -1.14770331       0.69812056      -1.03925622
H        2.84283179       1.75367258       0.59089002
H        3.84157277       0.48151265      -0.13148162
H        3.05776040       0.21256457       1.41363075
H       -0.50508089      -2.06567614       0.96523798
H       -0.62492538      -2.31536365      -0.79929396
H       -2.76526798      -1.13835639      -0.34942542
H       -1.15324982       1.15936108       1.00424262
H       -2.78118210       1.21572362       0.26218096
H       -1.74832857       0.90870879      -1.82351040
16
Frame=14 idx=008005 GeodesicLength=1.9991674622745457 rxn_smarts="[C:1]([C:2]#[C:3][C:4]([C@@:5]1([H:13])[C:6]([H:14])([H:15])[N:7]1[H:16])([H:11])[H:12])([H:8])([H:9])[H:10]>>[C:1]([C:2]#[C:3][N:7]([C:6]([C:5](=[C:4]([H:11])[H:12])[H:13])([H:14])[H:15])[H:16])([H:8])([H:9])[H:10]"
C        2.95182479       0.65939544       0.46018292
C        1.77336347       0.19129859      -0.27547289
C        0.60917884      -0.06410226      -0.52165782
C       -0.66448912      -1.57430013       0.00661508
C       -1.79470757      -0.71490767      -0.02227534
C       -1.82256968       0.74022119       0.23345323
N       -1.21362877       0.69391396      -1.09001554
H        2.90229608       1.72544896       0.69429543
H        3.85728841       0.47513589      -0.12127331
H        3.06752744       0.12552886       1.40602223
H       -0.47937594      -2.06417239       0.95827155
H       -0.61548806      -2.29843347      -0.80718417
H       -2.75553180      -1.15370693      -0.27833024
H       -1.14385577       1.21838096       0.93393282
H       -2.80330646       1.20653101       0.26948857
H       -1.86852587       0.83376798      -1.84605253
16
Frame=15 idx=008005 GeodesicLength=2.139381661052488 rxn_smarts="[C:1]([C:2]#[C:3][C:4]([C@@:5]1([H:13])[C:6]([H:14])([H:15])[N:7]1[H:16])([H:11])[H:12])([H:8])([H:9])[H:10]>>[C:1]([C:2]#[C:3][N:7]([C:6]([C:5](=[C:4]([H:11])[H:12])[H:13])([H:14])[H:15])[H:16])([H:8])([H:9])[H:10]"
C        2.97719364       0.64203871       0.48590121
C        1.77331852       0.28033298      -0.26606561
C        0.63096980      -0.00976916      -0.55158436
C       -0.64957778      -1.56384197       0.00713754
C       -1.77704192      -0.70545181      -0.01269083
C       -1.83699772       0.75498776       0.20797850
N       -1.28127618       0.68791431      -1.13856083
H        2.97028170       1.69010022       0.79290067
H        3.86911375       0.46256862      -0.11743126
H        3.07789326       0.04138935       1.39241109
H       -0.45624084      -2.06252229       0.95195583
H       -0.60070742      -2.27861529      -0.81521699
H       -2.74117179      -1.16778281      -0.21147003
H       -1.14416032       1.27635857       0.86141660
H       -2.82806007       1.19535997       0.27447866
H       -1.98353663       0.75693284      -1.86116019
16
Frame=16 idx=008005 GeodesicLength=2.2794172105381136 rxn_smarts="[C:1]([C:2]#[C:3][C:4]([C@@:5]1([H:13])[C:6]([H:14])([H:15])[N:7]1[H:16])([H:11])[H:12])([H:8])([H:9])[H:10]>>[C:1]([C:2]#[C:3][N:7]([C:6]([C:5](=[C:4]([H:11])[H:12])[H:13])([H:14])[H:15])[H:16])([H:8])([H:9])[H:10]"
C        3.00339805       0.62361860       0.50925106
C        1.76962396       0.37230414      -0.23719031
C        0.65451446       0.04787652      -0.57196768
C       -0.63562156      -1.55260873       0.01086286
C       -1.75982723      -0.69462149      -0.00638884
C       -1.85433997       0.76948007       0.17926915
N       -1.34799065       0.67880648      -1.18598638
H        3.03888964       1.64318230       0.89682638
H        3.87466869       0.46103222      -0.12739103
H        3.09962918      -0.04776655       1.36498850
H       -0.43971338      -2.06083957       0.94944827
H       -0.58233449      -2.25729457      -0.82019282
H       -2.72393270      -1.17878443      -0.14957715
H       -1.15319655       1.33372058       0.78566430
H       -2.85406159       1.18436071       0.27397067
H       -2.08970587       0.67753370      -1.87158698
