11
Frame=0 idx=005438 GeodesicLength=0.0 rxn_smarts="[C:1]([N:2]([C:3](=[O:4])[C:5](=[O:6])[H:11])[H:10])([H:7])([H:8])[H:9]>>[C:1]([N:2]([C:3](=[O:4])[O+:6]=[C-:5][H:11])[H:10])([H:7])([H:8])[H:9]"
C       -0.92214528       1.41004950      -0.14096599
N        0.15953353       0.56091827       0.32729464
C       -0.08330335      -0.79035564       0.34808735
O       -1.12579476      -1.34198406       0.51461024
C        1.23056589      -1.69326021      -0.40554894
O        1.24268948      -1.50359296       0.84899251
H       -1.83221972       1.14985603       0.39453916
H       -0.67042819       2.44603152       0.08184395
H       -1.10722424       1.30730906      -1.21525988
H        1.07904256       0.82515489       0.01920347
H        2.02928406      -2.37012644      -0.77279649
11
Frame=1 idx=005438 GeodesicLength=0.04935230401193495 rxn_smarts="[C:1]([N:2]([C:3](=[O:4])[C:5](=[O:6])[H:11])[H:10])([H:7])([H:8])[H:9]>>[C:1]([N:2]([C:3](=[O:4])[O+:6]=[C-:5][H:11])[H:10])([H:7])([H:8])[H:9]"
C       -0.93062796       1.41656756      -0.13887322
N        0.15792909       0.56673543       0.30849258
C       -0.07247214      -0.78415598       0.33950197
O       -1.11094307      -1.34371431       0.50883897
C        1.24213463      -1.70415149      -0.40317979
O        1.28206051      -1.47109160       0.84207496
H       -1.84439156       1.12438764       0.37320896
H       -0.69829265       2.44707624       0.12706375
H       -1.09892970       1.35215776      -1.21864317
H        1.07801511       0.83831460       0.00872398
H        1.99551775      -2.44212586      -0.74720899
11
Frame=2 idx=005438 GeodesicLength=0.09837856527034347 rxn_smarts="[C:1]([N:2]([C:3](=[O:4])[C:5](=[O:6])[H:11])[H:10])([H:7])([H:8])[H:9]>>[C:1]([N:2]([C:3](=[O:4])[O+:6]=[C-:5][H:11])[H:10])([H:7])([H:8])[H:9]"
C       -0.93884617       1.42299063      -0.13623780
N        0.15658364       0.57176353       0.28776768
C       -0.06196354      -0.77849643       0.32928603
O       -1.09658830      -1.34527351       0.50225379
C        1.25322185      -1.71687875      -0.40089895
O        1.32088142      -1.43884346       0.83250771
H       -1.85505679       1.09972498       0.35210319
H       -0.72501298       2.44558032       0.17296961
H       -1.09246564       1.39856702      -1.21958343
H        1.07696237       0.85041687      -0.00439159
H        1.96228413      -2.50955119      -0.71577622
11
Frame=3 idx=005438 GeodesicLength=0.14698998010013958 rxn_smarts="[C:1]([N:2]([C:3](=[O:4])[C:5](=[O:6])[H:11])[H:10])([H:7])([H:8])[H:9]>>[C:1]([N:2]([C:3](=[O:4])[O+:6]=[C-:5][H:11])[H:10])([H:7])([H:8])[H:9]"
C       -0.94660105       1.42886354      -0.13390915
N        0.15531824       0.57622279       0.26644928
C       -0.05158868      -0.77317667       0.31956191
O       -1.08245637      -1.34654842       0.49732646
C        1.26305982      -1.73059511      -0.39889708
O        1.35999834      -1.40711897       0.81997477
H       -1.86482798       1.07535433       0.32887442
H       -0.75120580       2.44112128       0.21901024
H       -1.08576916       1.44586268      -1.21909541
H        1.07606320       0.86189746      -0.01755726
H        1.92800945      -2.57188290      -0.68173818
11
Frame=4 idx=005438 GeodesicLength=0.19513107380714695 rxn_smarts="[C:1]([N:2]([C:3](=[O:4])[C:5](=[O:6])[H:11])[H:10])([H:7])([H:8])[H:9]>>[C:1]([N:2]([C:3](=[O:4])[O+:6]=[C-:5][H:11])[H:10])([H:7])([H:8])[H:9]"
C       -0.95393643       1.43474440      -0.13100263
N        0.15403890       0.57973103       0.24337916
C       -0.04221156      -0.76849512       0.30846730
O       -1.06975387      -1.34744592       0.49154650
C        1.27138871      -1.74663906      -0.39650757
O        1.39774685      -1.37627224       0.80480204
H       -1.87308979       1.05268575       0.30645256
H       -0.77530700       2.43431822       0.26482730
H       -1.08106214       1.49385283      -1.21595450
H        1.07505723       0.87186680      -0.03301072
H        1.89712909      -2.62834670      -0.64299944
11
Frame=5 idx=005438 GeodesicLength=0.2428473106147997 rxn_smarts="[C:1]([N:2]([C:3](=[O:4])[C:5](=[O:6])[H:11])[H:10])([H:7])([H:8])[H:9]>>[C:1]([N:2]([C:3](=[O:4])[O+:6]=[C-:5][H:11])[H:10])([H:7])([H:8])[H:9]"
C       -0.96092268       1.44025835      -0.12815493
N        0.15266557       0.58265596       0.21917586
C       -0.03314875      -0.76414036       0.29739424
O       -1.05753426      -1.34807577       0.48628833
C        1.27866638      -1.76362128      -0.39387193
O        1.43537556      -1.34597532       0.78670359
H       -1.88044129       1.03080548       0.28280619
H       -0.79835124       2.42466186       0.31068511
H       -1.07688854       1.54272751      -1.21086508
H        1.07402551       0.88126828      -0.04890797
H        1.86655373      -2.68056470      -0.60125342
11
Frame=6 idx=005438 GeodesicLength=0.2902610328475414 rxn_smarts="[C:1]([N:2]([C:3](=[O:4])[C:5](=[O:6])[H:11])[H:10])([H:7])([H:8])[H:9]>>[C:1]([N:2]([C:3](=[O:4])[O+:6]=[C-:5][H:11])[H:10])([H:7])([H:8])[H:9]"
C       -0.96759035       1.44559231      -0.12510208
N        0.15111913       0.58494576       0.19369085
C       -0.02469337      -0.76015065       0.28582496
O       -1.04622422      -1.34835240       0.48103446
C        1.28486960      -1.78182086      -0.39085719
O        1.47245765      -1.31639800       0.76566535
H       -1.88693424       1.01016142       0.25857175
H       -0.81997066       2.41239624       0.35646111
H       -1.07357137       1.59229876      -1.20350913
H        1.07290037       0.88989664      -0.06566250
H        1.83763746      -2.72856920      -0.55611757
11
Frame=7 idx=005438 GeodesicLength=0.3370322372721731 rxn_smarts="[C:1]([N:2]([C:3](=[O:4])[C:5](=[O:6])[H:11])[H:10])([H:7])([H:8])[H:9]>>[C:1]([N:2]([C:3](=[O:4])[O+:6]=[C-:5][H:11])[H:10])([H:7])([H:8])[H:9]"
C       -0.97383573       1.45082024      -0.12168962
N        0.14928676       0.58660082       0.16714978
C       -0.01706717      -0.75655498       0.27346269
O       -1.03600269      -1.34826519       0.47555867
C        1.28971754      -1.80129613      -0.38735949
O        1.50852925      -1.28770537       0.74147348
H       -1.89247388       0.99103584       0.23417333
H       -0.83991251       2.39784183       0.40167648
H       -1.07102663       1.64193765      -1.19371477
H        1.07153078       0.89770609      -0.08306162
H        1.81125429      -2.77212081      -0.50766894
11
Frame=8 idx=005438 GeodesicLength=0.3833652144962101 rxn_smarts="[C:1]([N:2]([C:3](=[O:4])[C:5](=[O:6])[H:11])[H:10])([H:7])([H:8])[H:9]>>[C:1]([N:2]([C:3](=[O:4])[O+:6]=[C-:5][H:11])[H:10])([H:7])([H:8])[H:9]"
C       -0.97974330       1.45560655      -0.11845483
N        0.14716481       0.58779340       0.13986153
C       -0.00979246      -0.75313218       0.26159780
O       -1.02633957      -1.34783243       0.47079126
C        1.29346143      -1.82116306      -0.38357694
O        1.54452520      -1.25986521       0.71386231
H       -1.89738825       0.97294143       0.20846572
H       -0.85874923       2.38059229       0.44612016
H       -1.06855596       1.69157649      -1.18199510
H        1.07010090       0.90529221      -0.09956281
H        1.78531642      -2.81180948      -0.45710911
11
Frame=9 idx=005438 GeodesicLength=0.42906080635628174 rxn_smarts="[C:1]([N:2]([C:3](=[O:4])[C:5](=[O:6])[H:11])[H:10])([H:7])([H:8])[H:9]>>[C:1]([N:2]([C:3](=[O:4])[O+:6]=[C-:5][H:11])[H:10])([H:7])([H:8])[H:9]"
C       -0.98521138       1.46032921      -0.11477854
N        0.14464529       0.58835507       0.11142101
C       -0.00345489      -0.75008390       0.24881910
O       -1.01800577      -1.34710484       0.46489917
C        1.29603987      -1.84209795      -0.37888241
O        1.57922730      -1.23308591       0.68314461
H       -1.90140435       0.95670082       0.18329746
H       -0.87553149       2.36139198       0.48959139
H       -1.06705523       1.74071682      -1.16780649
H        1.06838375       0.91213699      -0.11627336
H        1.76236690      -2.84725829      -0.40343194
11
Frame=10 idx=005438 GeodesicLength=0.4744658150991638 rxn_smarts="[C:1]([N:2]([C:3](=[O:4])[C:5](=[O:6])[H:11])[H:10])([H:7])([H:8])[H:9]>>[C:1]([N:2]([C:3](=[O:4])[O+:6]=[C-:5][H:11])[H:10])([H:7])([H:8])[H:9]"
C       -0.99034179       1.46490541      -0.11074319
N        0.14168807       0.58832620       0.08126344
C        0.00219202      -0.74733084       0.23522959
O       -1.01073396      -1.34616373       0.45778792
C        1.29791352      -1.86381055      -0.37312359
O        1.61307199      -1.20718565       0.64920070
H       -1.90478984       0.94205095       0.15825244
H       -0.89038109       2.33983490       0.53265618
H       -1.06641954       1.78995262      -1.15105663
H        1.06638906       0.91848855      -0.13319585
H        1.74141155      -2.87906786      -0.34627101
11
Frame=11 idx=005438 GeodesicLength=0.519488412530838 rxn_smarts="[C:1]([N:2]([C:3](=[O:4])[C:5](=[O:6])[H:11])[H:10])([H:7])([H:8])[H:9]>>[C:1]([N:2]([C:3](=[O:4])[O+:6]=[C-:5][H:11])[H:10])([H:7])([H:8])[H:9]"
C       -0.99513179       1.46911499      -0.10644664
N        0.13828743       0.58774078       0.04926043
C        0.00739757      -0.74477392       0.22110079
O       -1.00418099      -1.34506888       0.44962992
C        1.29929562      -1.88580278      -0.36633364
O        1.64631670      -1.18210163       0.61169703
H       -1.90765908       0.92869077       0.13283471
H       -0.90347688       2.31541111       0.57549971
H       -1.06618232       1.83946501      -1.13162390
H        1.06404437       0.92450224      -0.15019937
H        1.72128938      -2.90717770      -0.28541904
11
Frame=12 idx=005438 GeodesicLength=0.5642587290595962 rxn_smarts="[C:1]([N:2]([C:3](=[O:4])[C:5](=[O:6])[H:11])[H:10])([H:7])([H:8])[H:9]>>[C:1]([N:2]([C:3](=[O:4])[O+:6]=[C-:5][H:11])[H:10])([H:7])([H:8])[H:9]"
C       -0.99946044       1.47318109      -0.10151212
N        0.13426699       0.58649651       0.01493660
C        0.01175991      -0.74256324       0.20538140
O       -0.99883375      -1.34389072       0.43938917
C        1.30016423      -1.90857547      -0.35800164
O        1.67832844      -1.15791577       0.57057413
H       -1.90998084       0.91707970       0.10783774
H       -0.91421083       2.28834277       0.61828282
H       -1.06661936       1.88918501      -1.10904902
H        1.06114675       0.92990796      -0.16783930
H        1.70343889      -2.93124784      -0.21999977
11
Frame=13 idx=005438 GeodesicLength=0.6083850672915727 rxn_smarts="[C:1]([N:2]([C:3](=[O:4])[C:5](=[O:6])[H:11])[H:10])([H:7])([H:8])[H:9]>>[C:1]([N:2]([C:3](=[O:4])[O+:6]=[C-:5][H:11])[H:10])([H:7])([H:8])[H:9]"
C       -1.00317449       1.47682508      -0.09645009
N        0.12975514       0.58490520      -0.01910241
C        0.01529197      -0.74053371       0.18964806
O       -0.99472520      -1.34257241       0.42816464
C        1.29985492      -1.93142031      -0.34886900
O        1.70918115      -1.13549279       0.52537193
H       -1.91175464       0.90731160       0.08357494
H       -0.92310075       2.26010592       0.65859568
H       -1.06680656       1.93637750      -1.08486764
H        1.05784648       0.93495398      -0.18311696
H        1.68763198      -2.95046006      -0.15294916
11
Frame=14 idx=005438 GeodesicLength=0.6521350881353412 rxn_smarts="[C:1]([N:2]([C:3](=[O:4])[C:5](=[O:6])[H:11])[H:10])([H:7])([H:8])[H:9]>>[C:1]([N:2]([C:3](=[O:4])[O+:6]=[C-:5][H:11])[H:10])([H:7])([H:8])[H:9]"
C       -1.00632033       1.48002999      -0.09110733
N        0.12483743       0.58306287      -0.05276246
C        0.01812565      -0.73869241       0.17359681
O       -0.99173457      -1.34126047       0.41539685
C        1.29873178      -1.95428033      -0.33885725
O        1.73899172      -1.11479406       0.47565394
H       -1.91309844       0.89918431       0.06004639
H       -0.93038920       2.23066977       0.69692331
H       -1.06653667       1.98135450      -1.05897091
H        1.05408230       0.93959802      -0.19653410
H        1.67331032      -2.96487221      -0.08338525
11
Frame=15 idx=005438 GeodesicLength=0.6955035935642712 rxn_smarts="[C:1]([N:2]([C:3](=[O:4])[C:5](=[O:6])[H:11])[H:10])([H:7])([H:8])[H:9]>>[C:1]([N:2]([C:3](=[O:4])[O+:6]=[C-:5][H:11])[H:10])([H:7])([H:8])[H:9]"
C       -1.00891507       1.48267267      -0.08563213
N        0.11968985       0.58112493      -0.08502406
C        0.02043909      -0.73693096       0.15811295
O       -0.98969503      -1.33992590       0.40166687
C        1.29655015      -1.97693302      -0.32809776
O        1.76792031      -1.09613506       0.42062141
H       -1.91407945       0.89238512       0.03654733
H       -0.93683847       2.20011994       0.73317695
H       -1.06504951       2.02396379      -1.03170745
H        1.04991492       0.94375770      -0.20784803
H        1.66006321      -2.97409920      -0.01181609
11
Frame=16 idx=005438 GeodesicLength=0.7385147955808663 rxn_smarts="[C:1]([N:2]([C:3](=[O:4])[C:5](=[O:6])[H:11])[H:10])([H:7])([H:8])[H:9]>>[C:1]([N:2]([C:3](=[O:4])[O+:6]=[C-:5][H:11])[H:10])([H:7])([H:8])[H:9]"
C       -1.01083092       1.48502503      -0.07949492
N        0.11430485       0.57907490      -0.11575986
C        0.02176953      -0.73558926       0.14166955
O       -0.98922492      -1.33893520       0.38483489
C        1.29359597      -1.99981641      -0.31592639
O        1.79506703      -1.07974834       0.36022723
H       -1.91461585       0.88731482       0.01455788
H       -0.94186140       2.16923476       0.76763010
H       -1.06280468       2.06400340      -1.00295421
H        1.04534967       0.94701824      -0.21786721
H        1.64925072      -2.97758193       0.06308296
