11
Frame=0 idx=000127 GeodesicLength=0.0 rxn_smarts="[N:1](=[C:2]1/[C:3]([H:8])([H:9])[O:4][C:5]([H:10])([H:11])[O:6]1)\[H:7]>>[N:1]1([H:7])[C:2](=[O:6])[C:3]1([H:8])[H:9].[O:4]=[C:5]([H:10])[H:11]"
N        1.62416839      -1.27799841      -0.46051868
C        0.85258597      -0.22923626      -0.43714937
C       -0.14982483      -0.99204239       0.31835335
O       -1.65832695       0.21484527      -0.00491967
C       -1.22427395       1.35858466       0.08109812
O        0.87396332       0.97982826      -0.67024285
H        2.62494807      -1.10935596      -0.42117823
H       -0.61910140      -1.86196210      -0.11114050
H       -0.13409941      -0.90401452       1.39869965
H       -1.53673359       2.11904497      -0.64227747
H       -0.65330561       1.70230650       0.94927561
11
Frame=1 idx=000127 GeodesicLength=0.04150290520193711 rxn_smarts="[N:1](=[C:2]1/[C:3]([H:8])([H:9])[O:4][C:5]([H:10])([H:11])[O:6]1)\[H:7]>>[N:1]1([H:7])[C:2](=[O:6])[C:3]1([H:8])[H:9].[O:4]=[C:5]([H:10])[H:11]"
N        1.62502521      -1.27684936      -0.45941322
C        0.84623298      -0.23401358      -0.45058729
C       -0.15036035      -0.99914005       0.31140512
O       -1.65838744       0.21937576       0.01716008
C       -1.21073077       1.36384589       0.07914765
O        0.85842542       0.97939818      -0.67382636
H        2.62308621      -1.09877482      -0.40047631
H       -0.62219122      -1.86811578      -0.11833805
H       -0.12498429      -0.92151517       1.39280080
H       -1.53181113       2.11526717      -0.64986305
H       -0.65430463       1.72052177       0.95199061
11
Frame=2 idx=000127 GeodesicLength=0.08299219735977029 rxn_smarts="[N:1](=[C:2]1/[C:3]([H:8])([H:9])[O:4][C:5]([H:10])([H:11])[O:6]1)\[H:7]>>[N:1]1([H:7])[C:2](=[O:6])[C:3]1([H:8])[H:9].[O:4]=[C:5]([H:10])[H:11]"
N        1.62570848      -1.27562731      -0.45853966
C        0.84020502      -0.23859609      -0.46333852
C       -0.15083873      -1.00616993       0.30458048
O       -1.65776350       0.22395967       0.03943315
C       -1.19741337       1.36891552       0.07730556
O        0.84348252       0.97906177      -0.67649844
H        2.62067945      -1.08848607      -0.38058514
H       -0.62525706      -1.87405672      -0.12565916
H       -0.11605732      -0.93925358       1.38686862
H       -1.52703266       2.11078071      -0.65766709
H       -0.65571284       1.73947204       0.95410021
11
Frame=3 idx=000127 GeodesicLength=0.12445818814529527 rxn_smarts="[N:1](=[C:2]1/[C:3]([H:8])([H:9])[O:4][C:5]([H:10])([H:11])[O:6]1)\[H:7]>>[N:1]1([H:7])[C:2](=[O:6])[C:3]1([H:8])[H:9].[O:4]=[C:5]([H:10])[H:11]"
N        1.62622877      -1.27435774      -0.45787545
C        0.83451313      -0.24296013      -0.47538664
C       -0.15125937      -1.01312256       0.29788453
O       -1.65646406       0.22859104       0.06188334
C       -1.18432638       1.37381230       0.07557297
O        0.82914006       0.97884084      -0.67825535
H        2.61779470      -1.07855678      -0.36155506
H       -0.62830061      -1.87977079      -0.13310415
H       -0.10732919      -0.95721765       1.38090649
H       -1.52241825       2.10558808      -0.66567833
H       -0.65757880       1.75915338       0.95560764
11
Frame=4 idx=000127 GeodesicLength=0.16588187676541055 rxn_smarts="[N:1](=[C:2]1/[C:3]([H:8])([H:9])[O:4][C:5]([H:10])([H:11])[O:6]1)\[H:7]>>[N:1]1([H:7])[C:2](=[O:6])[C:3]1([H:8])[H:9].[O:4]=[C:5]([H:10])[H:11]"
N        1.62659492      -1.27306745      -0.45739920
C        0.82915971      -0.24708194      -0.48674181
C       -0.15162196      -1.01998522       0.29131769
O       -1.65449772       0.23327311       0.08448955
C       -1.17146755       1.37855307       0.07395760
O        0.81539762       0.97875731      -0.67911411
H        2.61449971      -1.06904895      -0.34340480
H       -0.63132604      -1.88525065      -0.14066922
H       -0.09880253      -0.97538546       1.37491747
H       -1.51797901       2.09969208      -0.67386414
H       -0.65995715       1.77954409       0.95651097
11
Frame=5 idx=000127 GeodesicLength=0.2072507119736235 rxn_smarts="[N:1](=[C:2]1/[C:3]([H:8])([H:9])[O:4][C:5]([H:10])([H:11])[O:6]1)\[H:7]>>[N:1]1([H:7])[C:2](=[O:6])[C:3]1([H:8])[H:9].[O:4]=[C:5]([H:10])[H:11]"
N        1.62682228      -1.27180158      -0.45709413
C        0.82413886      -0.25091571      -0.49749469
C       -0.15193271      -1.02676816       0.28487822
O       -1.65187539       0.23805429       0.10721103
C       -1.15882464       1.38316827       0.07248292
O        0.80226348       0.97890700      -0.67921252
H        2.61090532      -1.06002478      -0.32604588
H       -0.63440695      -1.89056393      -0.14833046
H       -0.09042413      -0.99376702       1.36893933
H       -1.51372609       2.09313146      -0.68214278
H       -0.66294002       1.80058018       0.95680898
11
Frame=6 idx=000127 GeodesicLength=0.24861258361780147 rxn_smarts="[N:1](=[C:2]1/[C:3]([H:8])([H:9])[O:4][C:5]([H:10])([H:11])[O:6]1)\[H:7]>>[N:1]1([H:7])[C:2](=[O:6])[C:3]1([H:8])[H:9].[O:4]=[C:5]([H:10])[H:11]"
N        1.62687567      -1.27044825      -0.45699963
C        0.81944576      -0.25460261      -0.50737682
C       -0.15218892      -1.03341280       0.27856535
O       -1.64862271       0.24278199       0.13026854
C       -1.14644028       1.38764119       0.07109237
O        0.78970222       0.97901649      -0.67807016
H        2.60686783      -1.05135907      -0.30977496
H       -0.63737850      -1.89539233      -0.15616732
H       -0.08233568      -1.01230471       1.36280351
H       -1.50955180       2.08574049      -0.69075205
H       -0.66637358       1.82233961       0.95641117
11
Frame=7 idx=000127 GeodesicLength=0.2898986935340283 rxn_smarts="[N:1](=[C:2]1/[C:3]([H:8])([H:9])[O:4][C:5]([H:10])([H:11])[O:6]1)\[H:7]>>[N:1]1([H:7])[C:2](=[O:6])[C:3]1([H:8])[H:9].[O:4]=[C:5]([H:10])[H:11]"
N        1.62678702      -1.26915200      -0.45706814
C        0.81508607      -0.25796395      -0.51667210
C       -0.15239801      -1.03996149       0.27238104
O       -1.64471498       0.24761993       0.15349024
C       -1.13427182       1.39202791       0.06985922
O        0.77777652       0.97941128      -0.67611413
H        2.60263577      -1.04326315      -0.29434224
H       -0.64044443      -1.90001262      -0.16411550
H       -0.07438304      -1.03105687       1.35667684
H       -1.50554147       2.07761325      -0.69946515
H       -0.67053163       1.84473771       0.95536991
11
Frame=8 idx=000127 GeodesicLength=0.33111597737571474 rxn_smarts="[N:1](=[C:2]1/[C:3]([H:8])([H:9])[O:4][C:5]([H:10])([H:11])[O:6]1)\[H:7]>>[N:1]1([H:7])[C:2](=[O:6])[C:3]1([H:8])[H:9].[O:4]=[C:5]([H:10])[H:11]"
N        1.62657250      -1.26791069      -0.45734832
C        0.81101228      -0.26102224      -0.52544004
C       -0.15255459      -1.04638514       0.26626194
O       -1.64015276       0.25256421       0.17703514
C       -1.12230449       1.39633765       0.06881023
O        0.76642817       0.98000901      -0.67333316
H        2.59819001      -1.03574806      -0.27955044
H       -0.64355617      -1.90434391      -0.17225834
H       -0.06655583      -1.05001858       1.35045450
H       -1.50174115       2.06866142      -0.70827800
H       -0.67533798       1.86785631       0.95364649
11
Frame=9 idx=000127 GeodesicLength=0.37230821496787614 rxn_smarts="[N:1](=[C:2]1/[C:3]([H:8])([H:9])[O:4][C:5]([H:10])([H:11])[O:6]1)\[H:7]>>[N:1]1([H:7])[C:2](=[O:6])[C:3]1([H:8])[H:9].[O:4]=[C:5]([H:10])[H:11]"
N        1.62620308      -1.26666039      -0.45784298
C        0.80724823      -0.26381859      -0.53356312
C       -0.15267822      -1.05268283       0.26023110
O       -1.63491995       0.25756481       0.20100591
C       -1.11055566       1.40057882       0.06791836
O        0.75569234       0.98076685      -0.66954182
H        2.59350037      -1.02872811      -0.26556659
H       -0.64674679      -1.90825785      -0.18060493
H       -0.05889890      -1.06921926       1.34410218
H       -1.49806625       2.05879747      -0.71731848
H       -0.68077825       1.89165908       0.95118038
11
Frame=10 idx=000127 GeodesicLength=0.41348203968586467 rxn_smarts="[N:1](=[C:2]1/[C:3]([H:8])([H:9])[O:4][C:5]([H:10])([H:11])[O:6]1)\[H:7]>>[N:1]1([H:7])[C:2](=[O:6])[C:3]1([H:8])[H:9].[O:4]=[C:5]([H:10])[H:11]"
N        1.62570534      -1.26545852      -0.45855891
C        0.80375829      -0.26630842      -0.54115187
C       -0.15276589      -1.05884763       0.25425001
O       -1.62900083       0.26268467       0.22546536
C       -1.09900151       1.40477689       0.06722232
O        0.74554616       0.98174812      -0.66485161
H        2.58864620      -1.02229295      -0.25220431
H       -0.65005093      -1.91179331      -0.18920553
H       -0.05135211      -1.08868283       1.33760323
H       -1.49457189       2.04798094      -0.72650618
H       -0.68691283       1.91619304       0.94793749
11
Frame=11 idx=000127 GeodesicLength=0.45467576017668715 rxn_smarts="[N:1](=[C:2]1/[C:3]([H:8])([H:9])[O:4][C:5]([H:10])([H:11])[O:6]1)\[H:7]>>[N:1]1([H:7])[C:2](=[O:6])[C:3]1([H:8])[H:9].[O:4]=[C:5]([H:10])[H:11]"
N        1.62507199      -1.26430165      -0.45954090
C        0.80055127      -0.26847348      -0.54821225
C       -0.15282020      -1.06487315       0.24829490
O       -1.62234421       0.26792916       0.25056100
C       -1.08762650       1.40895516       0.06674804
O        0.73602408       0.98296023      -0.65918456
H        2.58362664      -1.01648191      -0.23941833
H       -0.65350296      -1.91488469      -0.19812214
H       -0.04390433      -1.10846724       1.33091405
H       -1.49128376       2.03607224      -0.73589653
H       -0.69379201       1.94156534       0.94385671
11
Frame=12 idx=000127 GeodesicLength=0.49579376119445445 rxn_smarts="[N:1](=[C:2]1/[C:3]([H:8])([H:9])[O:4][C:5]([H:10])([H:11])[O:6]1)\[H:7]>>[N:1]1([H:7])[C:2](=[O:6])[C:3]1([H:8])[H:9].[O:4]=[C:5]([H:10])[H:11]"
N        1.62428184      -1.26318604      -0.46078557
C        0.79762821      -0.27028339      -0.55473440
C       -0.15284973      -1.07071960       0.24237810
O       -1.61490141       0.27336908       0.27632034
C       -1.07644246       1.41311772       0.06647486
O        0.72715456       0.98444074      -0.65246589
H        2.57845264      -1.01130831      -0.22727660
H       -0.65713911      -1.91746563      -0.20733531
H       -0.03656288      -1.12854092       1.32403425
H       -1.48811037       2.02296289      -0.74544153
H       -0.70151129       1.96761346       0.93883174
11
Frame=13 idx=000127 GeodesicLength=0.5369530067361817 rxn_smarts="[N:1](=[C:2]1/[C:3]([H:8])([H:9])[O:4][C:5]([H:10])([H:11])[O:6]1)\[H:7]>>[N:1]1([H:7])[C:2](=[O:6])[C:3]1([H:8])[H:9].[O:4]=[C:5]([H:10])[H:11]"
N        1.62334745      -1.26210856      -0.46232425
C        0.79498155      -0.27173575      -0.56071755
C       -0.15286067      -1.07639156       0.23646551
O       -1.60663522       0.27897129       0.30289983
C       -1.06543664       1.41727244       0.06644093
O        0.71893825       0.98617891      -0.64465686
H        2.57314679      -1.00680162      -0.21569217
H       -0.66099811      -1.91947335      -0.21692344
H       -0.02931397      -1.14897469       1.31688941
H       -1.48509978       2.00855143      -0.75520228
H       -0.71006965       1.99451147       0.93282088
11
Frame=14 idx=000127 GeodesicLength=0.578139831569726 rxn_smarts="[N:1](=[C:2]1/[C:3]([H:8])([H:9])[O:4][C:5]([H:10])([H:11])[O:6]1)\[H:7]>>[N:1]1([H:7])[C:2](=[O:6])[C:3]1([H:8])[H:9].[O:4]=[C:5]([H:10])[H:11]"
N        1.62224802      -1.26107999      -0.46421340
C        0.79263837      -0.27276364      -0.56613575
C       -0.15285581      -1.08185600       0.23054601
O       -1.59743454       0.28482048       0.33051025
C       -1.05460921       1.42144714       0.06665276
O        0.71145648       0.98824385      -0.63558695
H        2.56772118      -1.00305556      -0.20469647
H       -0.66515180      -1.92079699      -0.22696801
H       -0.02214870      -1.16984867       1.30945079
H       -1.48223428       1.99256752      -0.76521949
H       -0.71962972       2.02232186       0.92566026
11
Frame=15 idx=000127 GeodesicLength=0.6194611247476071 rxn_smarts="[N:1](=[C:2]1/[C:3]([H:8])([H:9])[O:4][C:5]([H:10])([H:11])[O:6]1)\[H:7]>>[N:1]1([H:7])[C:2](=[O:6])[C:3]1([H:8])[H:9].[O:4]=[C:5]([H:10])[H:11]"
N        1.62096888      -1.26008828      -0.46652018
C        0.79060908      -0.27330509      -0.57095480
C       -0.15284384      -1.08710168       0.22458259
O       -1.58715833       0.29096436       0.35946943
C       -1.04395969       1.42566264       0.06713225
O        0.70476336       0.99070160      -0.62509189
H        2.56217551      -1.00014291      -0.19421464
H       -0.66971356      -1.92129125      -0.23761358
H       -0.01502631      -1.19131902       1.30163837
H       -1.47954776       1.97470563      -0.77558287
H       -0.73026734       2.05121401       0.91715531
11
Frame=16 idx=000127 GeodesicLength=0.6607720168917584 rxn_smarts="[N:1](=[C:2]1/[C:3]([H:8])([H:9])[O:4][C:5]([H:10])([H:11])[O:6]1)\[H:7]>>[N:1]1([H:7])[C:2](=[O:6])[C:3]1([H:8])[H:9].[O:4]=[C:5]([H:10])[H:11]"
N        1.61946398      -1.25911777      -0.46927101
C        0.78891710      -0.27331311      -0.57512786
C       -0.15283330      -1.09201791       0.21858119
O       -1.57568435       0.29748906       0.38983162
C       -1.03348074       1.42986996       0.06789323
O        0.69893035       0.99353460      -0.61299443
H        2.55648911      -0.99813365      -0.18440660
H       -0.67469362      -1.92076700      -0.24884628
H       -0.00802389      -1.21327712       1.29339615
H       -1.47687383       1.95466792      -0.78622981
H       -0.74221083       2.08106502       0.90717380
