14
Frame=0 idx=000287 GeodesicLength=0.0 rxn_smarts="[C:1]([C@@:2]1([H:10])[O:3][C:4]([H:11])([H:12])[C:5]([H:13])=[C:6]1[H:14])([H:7])([H:8])[H:9]>>[C:1](=[C:2](/[C:6](=[C:5](\[C:4]([O:3][H:7])([H:11])[H:12])[H:13])[H:14])[H:10])([H:8])[H:9]"
C        1.79222879      -0.35246047       0.39099334
C        0.92910054       0.58194885      -0.22594265
O       -0.08992970      -0.75825604      -1.11263807
C       -1.37833481      -0.69449787      -0.56169760
C       -1.39462865       0.47573872       0.38624172
C       -0.24817574       1.12633620       0.49154264
H        0.84433012      -1.09279645      -0.33755841
H        2.80008214      -0.46074798       0.00985735
H        1.64667953      -0.54892981       1.44723751
H        1.27184585       1.12232801      -1.10376274
H       -2.12289278      -0.54890324      -1.35437331
H       -1.64300154      -1.62476520      -0.04425048
H       -2.29804351       0.76607829       0.90951393
H       -0.10926019       2.00892702       1.10483677
14
Frame=1 idx=000287 GeodesicLength=0.04658771187399511 rxn_smarts="[C:1]([C@@:2]1([H:10])[O:3][C:4]([H:11])([H:12])[C:5]([H:13])=[C:6]1[H:14])([H:7])([H:8])[H:9]>>[C:1](=[C:2](/[C:6](=[C:5](\[C:4]([O:3][H:7])([H:11])[H:12])[H:13])[H:14])[H:10])([H:8])[H:9]"
C        1.79364418      -0.35400409       0.38605566
C        0.92756873       0.58069092      -0.22789687
O       -0.09497033      -0.76503669      -1.11371158
C       -1.38175851      -0.69542494      -0.55780154
C       -1.39435320       0.47717455       0.38705077
C       -0.24670747       1.12582784       0.49380525
H        0.85519431      -1.11204431      -0.34770922
H        2.81015678      -0.43411460       0.02092051
H        1.63830819      -0.56570132       1.43823036
H        1.27526978       1.12976864      -1.09870563
H       -2.12768571      -0.55113084      -1.34918617
H       -1.64692098      -1.62321105      -0.03592011
H       -2.30083115       0.77841158       0.89863965
H       -0.10691462       2.00879429       1.10622892
14
Frame=2 idx=000287 GeodesicLength=0.09317276547602288 rxn_smarts="[C:1]([C@@:2]1([H:10])[O:3][C:4]([H:11])([H:12])[C:5]([H:13])=[C:6]1[H:14])([H:7])([H:8])[H:9]>>[C:1](=[C:2](/[C:6](=[C:5](\[C:4]([O:3][H:7])([H:11])[H:12])[H:13])[H:14])[H:10])([H:8])[H:9]"
C        1.79492892      -0.35565926       0.38083165
C        0.92603769       0.57957735      -0.22996856
O       -0.10003603      -0.77187002      -1.11473467
C       -1.38513336      -0.69637571      -0.55379754
C       -1.39408918       0.47876380       0.38772237
C       -0.24521931       1.12540061       0.49601082
H        0.86629745      -1.13134604      -0.35835164
H        2.81940662      -0.40754261       0.03284583
H        1.63000836      -0.58246106       1.42867689
H        1.27879602       1.13740287      -1.09352513
H       -2.13250030      -0.55359435      -1.34385571
H       -1.65062273      -1.62159628      -0.02729708
H       -2.30339218       0.79073228       0.88764413
H       -0.10448195       2.00856844       1.10779864
14
Frame=3 idx=000287 GeodesicLength=0.1397574451100272 rxn_smarts="[C:1]([C@@:2]1([H:10])[O:3][C:4]([H:11])([H:12])[C:5]([H:13])=[C:6]1[H:14])([H:7])([H:8])[H:9]>>[C:1](=[C:2](/[C:6](=[C:5](\[C:4]([O:3][H:7])([H:11])[H:12])[H:13])[H:14])[H:10])([H:8])[H:9]"
C        1.79609725      -0.35741194       0.37530585
C        0.92450692       0.57861680      -0.23216067
O       -0.10511933      -0.77876866      -1.11569263
C       -1.38845593      -0.69735173      -0.54968326
C       -1.39383584       0.48050709       0.38825302
C       -0.24371082       1.12505281       0.49816504
H        0.87764289      -1.15069631      -0.36947432
H        2.82780288      -0.38107619       0.04562523
H        1.62179118      -0.59918585       1.41857159
H        1.28241896       1.14523626      -1.08821945
H       -2.13732711      -0.55629482      -1.33838348
H       -1.65411024      -1.61991780      -0.01837946
H       -2.30573718       0.80304513       0.87651578
H       -0.10196362       2.00824521       1.10955677
14
Frame=4 idx=000287 GeodesicLength=0.1863670279333258 rxn_smarts="[C:1]([C@@:2]1([H:10])[O:3][C:4]([H:11])([H:12])[C:5]([H:13])=[C:6]1[H:14])([H:7])([H:8])[H:9]>>[C:1](=[C:2](/[C:6](=[C:5](\[C:4]([O:3][H:7])([H:11])[H:12])[H:13])[H:14])[H:10])([H:8])[H:9]"
C        1.79717124      -0.35924745       0.36946087
C        0.92298024       0.57781995      -0.23447397
O       -0.11021039      -0.78575153      -1.11657117
C       -1.39172732      -0.69835996      -0.54545547
C       -1.39359808       0.48240279       0.38864777
C       -0.24218265       1.12478444       0.50028257
H        0.88923730      -1.17009578      -0.38106483
H        2.83532846      -0.35476062       0.05923743
H        1.61367545      -0.61585375       1.40790913
H        1.28613943       1.15328043      -1.08278497
H       -2.14216000      -0.55923718      -1.33277150
H       -1.65739763      -1.61818166      -0.00916695
H       -2.30789319       0.81537299       0.86522681
H       -0.09936285       2.00782732       1.11152428
14
Frame=5 idx=000287 GeodesicLength=0.23294577588821985 rxn_smarts="[C:1]([C@@:2]1([H:10])[O:3][C:4]([H:11])([H:12])[C:5]([H:13])=[C:6]1[H:14])([H:7])([H:8])[H:9]>>[C:1](=[C:2](/[C:6](=[C:5](\[C:4]([O:3][H:7])([H:11])[H:12])[H:13])[H:14])[H:10])([H:8])[H:9]"
C        1.79814833      -0.36113622       0.36329902
C        0.92144735       0.57719355      -0.23691446
O       -0.11530334      -0.79281810      -1.11735058
C       -1.39493511      -0.69938536      -0.54112315
C       -1.39336095       0.48444936       0.38888453
C       -0.24063366       1.12459024       0.50234474
H        0.90107140      -1.18952172      -0.39308707
H        2.84192245      -0.32867680       0.07367107
H        1.60566522      -0.63240981       1.39670333
H        1.28993809       1.16152519      -1.07722391
H       -2.14697746      -0.56240045      -1.32703755
H       -1.66047708      -1.61635793       0.00032800
H       -2.30982192       0.82764811       0.85383015
H       -0.09668331       2.00729995       1.11367587
14
Frame=6 idx=000287 GeodesicLength=0.2795606122382163 rxn_smarts="[C:1]([C@@:2]1([H:10])[O:3][C:4]([H:11])([H:12])[C:5]([H:13])=[C:6]1[H:14])([H:7])([H:8])[H:9]>>[C:1](=[C:2](/[C:6](=[C:5](\[C:4]([O:3][H:7])([H:11])[H:12])[H:13])[H:14])[H:10])([H:8])[H:9]"
C        1.79908913      -0.36303809       0.35681522
C        0.91991456       0.57675534      -0.23945392
O       -0.12035789      -0.80003093      -1.11797979
C       -1.39808844      -0.70044300      -0.53669997
C       -1.39315230       0.48662231       0.38900069
C       -0.23908110       1.12445713       0.50442014
H        0.91314080      -1.20900847      -0.40542613
H        2.84759396      -0.30296629       0.08871066
H        1.59789007      -0.64873868       1.38500288
H        1.29380186       1.16999864      -1.07151349
H       -2.15173540      -0.56574835      -1.32122899
H       -1.66343846      -1.61448064       0.01003911
H       -2.31160689       0.83993767       0.84224241
H       -0.09396991       2.00668336       1.11607119
14
Frame=7 idx=000287 GeodesicLength=0.3260550359174284 rxn_smarts="[C:1]([C@@:2]1([H:10])[O:3][C:4]([H:11])([H:12])[C:5]([H:13])=[C:6]1[H:14])([H:7])([H:8])[H:9]>>[C:1](=[C:2](/[C:6](=[C:5](\[C:4]([O:3][H:7])([H:11])[H:12])[H:13])[H:14])[H:10])([H:8])[H:9]"
C        1.79992748      -0.36498873       0.34998336
C        0.91835185       0.57648765      -0.24213476
O       -0.12540501      -0.80732778      -1.11846490
C       -1.40114746      -0.70149361      -0.53216037
C       -1.39291175       0.48894249       0.38894503
C       -0.23750721       1.12438670       0.50641307
H        0.92545420      -1.22850176      -0.41816191
H        2.85224989      -0.27751629       0.10461830
H        1.59019357      -0.66497238       1.37271870
H        1.29769696       1.17866321      -1.06566838
H       -2.15643377      -0.56926922      -1.31527919
H       -1.66616054      -1.61247871       0.02003571
H       -2.31311868       0.85211777       0.83058346
H       -0.09118952       2.00595065       1.11857188
14
Frame=8 idx=000287 GeodesicLength=0.3726235879297648 rxn_smarts="[C:1]([C@@:2]1([H:10])[O:3][C:4]([H:11])([H:12])[C:5]([H:13])=[C:6]1[H:14])([H:7])([H:8])[H:9]>>[C:1](=[C:2](/[C:6](=[C:5](\[C:4]([O:3][H:7])([H:11])[H:12])[H:13])[H:14])[H:10])([H:8])[H:9]"
C        1.80074558      -0.36692384       0.34281096
C        0.91680002       0.57642598      -0.24493346
O       -0.13040950      -0.81478204      -1.11879949
C       -1.40415646      -0.70257981      -0.52752956
C       -1.39269917       0.49140400       0.38874825
C       -0.23592311       1.12439602       0.50840180
H        0.93801943      -1.24804334      -0.43122133
H        2.85596036      -0.25248955       0.12116303
H        1.58268749      -0.68097686       1.35992920
H        1.30168332       1.18756240      -1.05968052
H       -2.16108718      -0.57300066      -1.30925792
H       -1.66876897      -1.61040933       0.03027202
H       -2.31449160       0.86427771       0.81878183
H       -0.08836020       2.00513932       1.12131520
14
Frame=9 idx=000287 GeodesicLength=0.4191825987936738 rxn_smarts="[C:1]([C@@:2]1([H:10])[O:3][C:4]([H:11])([H:12])[C:5]([H:13])=[C:6]1[H:14])([H:7])([H:8])[H:9]>>[C:1](=[C:2](/[C:6](=[C:5](\[C:4]([O:3][H:7])([H:11])[H:12])[H:13])[H:14])[H:10])([H:8])[H:9]"
C        1.80154892      -0.36881936       0.33528982
C        0.91522963       0.57656888      -0.24783343
O       -0.13536023      -0.82240424      -1.11892726
C       -1.40709164      -0.70369148      -0.52279748
C       -1.39249775       0.49398343       0.38841904
C       -0.23433429       1.12444578       0.51041529
H        0.95082084      -1.26762914      -0.44452540
H        2.85868226      -0.22794170       0.13823011
H        1.57542915      -0.69671857       1.34664104
H        1.30568978       1.19670357      -1.05351990
H       -2.16564066      -0.57690491      -1.30316417
H       -1.67125872      -1.60825423       0.04073306
H       -2.31571851       0.87646140       0.80672602
H       -0.08549879       2.00420057       1.12431325
14
Frame=10 idx=000287 GeodesicLength=0.4657256142019016 rxn_smarts="[C:1]([C@@:2]1([H:10])[O:3][C:4]([H:11])([H:12])[C:5]([H:13])=[C:6]1[H:14])([H:7])([H:8])[H:9]>>[C:1](=[C:2](/[C:6](=[C:5](\[C:4]([O:3][H:7])([H:11])[H:12])[H:13])[H:14])[H:10])([H:8])[H:9]"
C        1.80233857      -0.37064804       0.32744419
C        0.91364753       0.57692573      -0.25084544
O       -0.14023265      -0.83021074      -1.11883329
C       -1.40995603      -0.70480440      -0.51800642
C       -1.39230192       0.49667694       0.38794467
C       -0.23274870       1.12456296       0.51240868
H        0.96385095      -1.28726540      -0.45798021
H        2.86039925      -0.20398145       0.15577111
H        1.56841937      -0.71210185       1.33290989
H        1.30973373       1.20606204      -1.04720783
H       -2.17006608      -0.58090576      -1.29706860
H       -1.67368796      -1.60599454       0.05134236
H       -2.31676246       0.88849135       0.79464436
H       -0.08263358       2.00319315       1.12747654
14
Frame=11 idx=000287 GeodesicLength=0.5122556315852216 rxn_smarts="[C:1]([C@@:2]1([H:10])[O:3][C:4]([H:11])([H:12])[C:5]([H:13])=[C:6]1[H:14])([H:7])([H:8])[H:9]>>[C:1](=[C:2](/[C:6](=[C:5](\[C:4]([O:3][H:7])([H:11])[H:12])[H:13])[H:14])[H:10])([H:8])[H:9]"
C        1.80313428      -0.37238288       0.31927503
C        0.91204767       0.57750277      -0.25395627
O       -0.14501513      -0.83821996      -1.11848868
C       -1.41274982      -0.70592089      -0.51315868
C       -1.39211612       0.49946923       0.38733829
C       -0.23117228       1.12473132       0.51441178
H        0.97710466      -1.30696407      -0.47152084
H        2.86112946      -0.18066585       0.17366076
H        1.56170236      -0.72708763       1.31876680
H        1.31379371       1.21565018      -1.04072508
H       -2.17434269      -0.58498853      -1.29098929
H       -1.67608688      -1.60363154       0.06207953
H       -2.31765100       0.90040517       0.78247266
H       -0.07977823       2.00210269       1.13083400
14
Frame=12 idx=000287 GeodesicLength=0.5587729843148102 rxn_smarts="[C:1]([C@@:2]1([H:10])[O:3][C:4]([H:11])([H:12])[C:5]([H:13])=[C:6]1[H:14])([H:7])([H:8])[H:9]>>[C:1](=[C:2](/[C:6](=[C:5](\[C:4]([O:3][H:7])([H:11])[H:12])[H:13])[H:14])[H:10])([H:8])[H:9]"
C        1.80394491      -0.37400153       0.31078728
C        0.91042622       0.57830651      -0.25715909
O       -0.14969537      -0.84644406      -1.11787189
C       -1.41547254      -0.70703822      -0.50826187
C       -1.39194178       0.50235206       0.38660360
C       -0.22961039       1.12494631       0.51643486
H        0.99058122      -1.32673611      -0.48508751
H        2.86088781      -0.15804905       0.19180119
H        1.55529766      -0.74164067       1.30424038
H        1.31785928       1.22547349      -1.03405845
H       -2.17845288      -0.58913432      -1.28494815
H       -1.67848241      -1.60116153       0.07292295
H       -2.31839559       0.91219879       0.77020582
H       -0.07694612       2.00092833       1.13439089
14
Frame=13 idx=000287 GeodesicLength=0.6053311587440803 rxn_smarts="[C:1]([C@@:2]1([H:10])[O:3][C:4]([H:11])([H:12])[C:5]([H:13])=[C:6]1[H:14])([H:7])([H:8])[H:9]>>[C:1](=[C:2](/[C:6](=[C:5](\[C:4]([O:3][H:7])([H:11])[H:12])[H:13])[H:14])[H:10])([H:8])[H:9]"
C        1.80479388      -0.37548045       0.30198649
C        0.90879453       0.57934510      -0.26045120
O       -0.15426957      -0.85490047      -1.11698085
C       -1.41814446      -0.70816357      -0.50332668
C       -1.39179465       0.50532053       0.38574799
C       -0.22806370       1.12520957       0.51849521
H        1.00428697      -1.34659639      -0.49864175
H        2.85972811      -0.13616256       0.21011039
H        1.54922459      -0.75572909       1.28936760
H        1.32194909       1.23553895      -1.02720502
H       -2.18241216      -0.59334855      -1.27897556
H       -1.68092498      -1.59858880       0.08386081
H       -2.31903160       0.92388029       0.75783585
H       -0.07413605       1.99967545       1.13817669
14
Frame=14 idx=000287 GeodesicLength=0.6518010324099435 rxn_smarts="[C:1]([C@@:2]1([H:10])[O:3][C:4]([H:11])([H:12])[C:5]([H:13])=[C:6]1[H:14])([H:7])([H:8])[H:9]>>[C:1](=[C:2](/[C:6](=[C:5](\[C:4]([O:3][H:7])([H:11])[H:12])[H:13])[H:14])[H:10])([H:8])[H:9]"
C        1.80568529      -0.37677152       0.29289432
C        0.90709553       0.58061984      -0.26377250
O       -0.15869745      -0.86361177      -1.11570131
C       -1.42073056      -0.70927702      -0.49835549
C       -1.39167687       0.50835087       0.38476811
C       -0.22656392       1.12544741       0.52067410
H        1.01819248      -1.36657282      -0.51196347
H        2.85766509      -0.11515337       0.22817124
H        1.54363892      -0.76924412       1.27423123
H        1.32592179       1.24587170      -1.02008952
H       -2.18610264      -0.59755452      -1.27311474
H       -1.68344442      -1.59588890       0.09483692
H       -2.31957136       0.93555374       0.74513258
H       -0.07141190       1.99823046       1.14228851
14
Frame=15 idx=000287 GeodesicLength=0.6982266514477977 rxn_smarts="[C:1]([C@@:2]1([H:10])[O:3][C:4]([H:11])([H:12])[C:5]([H:13])=[C:6]1[H:14])([H:7])([H:8])[H:9]>>[C:1](=[C:2](/[C:6](=[C:5](\[C:4]([O:3][H:7])([H:11])[H:12])[H:13])[H:14])[H:10])([H:8])[H:9]"
C        1.80657479      -0.37792212       0.28346457
C        0.90534891       0.58213118      -0.26718569
O       -0.16301474      -0.87252868      -1.11411122
C       -1.42322374      -0.71038489      -0.49331514
C       -1.39155587       0.51147091       0.38365346
C       -0.22508859       1.12572496       0.52286736
H        1.03234392      -1.38663487      -0.52525065
H        2.85465991      -0.09488169       0.24636695
H        1.53831971      -0.78235056       1.25870265
H        1.32986475       1.25645435      -1.01273732
H       -2.18960690      -0.60182908      -1.26726034
H       -1.68593613      -1.59305935       0.10594503
H       -2.31996430       0.94715712       0.73223647
H       -0.06872172       1.99665273       1.14662387
14
Frame=16 idx=000287 GeodesicLength=0.7446936685691049 rxn_smarts="[C:1]([C@@:2]1([H:10])[O:3][C:4]([H:11])([H:12])[C:5]([H:13])=[C:6]1[H:14])([H:7])([H:8])[H:9]>>[C:1](=[C:2](/[C:6](=[C:5](\[C:4]([O:3][H:7])([H:11])[H:12])[H:13])[H:14])[H:10])([H:8])[H:9]"
C        1.80752864      -0.37887017       0.27373236
C        0.90356340       0.58389125      -0.27064407
O       -0.16720331      -0.88170816      -1.11216748
C       -1.42567415      -0.71150271      -0.48823855
C       -1.39149018       0.51466016       0.38242452
C       -0.22365303       1.12599923       0.52518338
H        1.04672727      -1.40683350      -0.53833362
H        2.85087301      -0.07544539       0.26431521
H        1.53343653      -0.79491371       1.24292327
H        1.33375991       1.26731520      -1.00512126
H       -2.19292063      -0.60615720      -1.26152056
H       -1.68855500      -1.59011365       0.11712394
H       -2.32030493       0.95878292       0.71898956
H       -0.06608754       1.99489574       1.15133331
