15
Frame=0 idx=007231 GeodesicLength=0.0 rxn_smarts="[O:1]([C:2]([C@@:3]1([H:11])[C:4]([H:12])([H:13])[C:5]([H:14])([H:15])[C:6]1=[O:7])([H:9])[H:10])[H:8]>>[O:1]([C:2]([C:3]1([C:6](=[O:7])[H:11])[C:4]([H:12])([H:13])[C:5]1([H:14])[H:15])([H:9])[H:10])[H:8]"
O        2.41097812       0.63074754      -0.06979681
C        1.56477309      -0.48961769      -0.06641488
C        0.19095079      -0.12885990       0.27511744
C       -0.54514354       1.16324324       0.11143018
C       -1.76154161       0.34059289      -0.29019216
C       -0.95038904      -1.01360838       0.31128431
O       -1.07678507      -2.22040282       0.01357874
H        3.28653619       0.36173438      -0.35082865
H        1.87664491      -1.27155638       0.64277652
H        1.50920393      -0.99446243      -1.04739493
H       -1.21687173      -0.66276473       1.38756483
H       -0.61205784       1.80656435       0.98672830
H       -0.10290208       1.74210772      -0.70218274
H       -1.84317143       0.21380028      -1.36585271
H       -2.73022464       0.52248193       0.16418260
15
Frame=1 idx=007231 GeodesicLength=0.08787502442655344 rxn_smarts="[O:1]([C:2]([C@@:3]1([H:11])[C:4]([H:12])([H:13])[C:5]([H:14])([H:15])[C:6]1=[O:7])([H:9])[H:10])[H:8]>>[O:1]([C:2]([C:3]1([C:6](=[O:7])[H:11])[C:4]([H:12])([H:13])[C:5]1([H:14])[H:15])([H:9])[H:10])[H:8]"
O        2.39909481       0.62735351      -0.08132031
C        1.55151554      -0.49255206      -0.06926032
C        0.17907773      -0.12793554       0.28430754
C       -0.54715272       1.17033067       0.12225764
C       -1.74643405       0.34109099      -0.31071510
C       -0.95446110      -1.02490500       0.31697264
O       -1.06777403      -2.23307624       0.03531009
H        3.27242468       0.35694400      -0.36777291
H        1.87071048      -1.27215574       0.63882626
H        1.49384612      -0.99711231      -1.04978764
H       -1.18490420      -0.65023282       1.40922232
H       -0.63466729       1.80134752       1.00429386
H       -0.09457230       1.75949281      -0.67746002
H       -1.81550691       0.22501549      -1.38845846
H       -2.72119674       0.51639469       0.13358440
15
Frame=2 idx=007231 GeodesicLength=0.17586174244278902 rxn_smarts="[O:1]([C:2]([C@@:3]1([H:11])[C:4]([H:12])([H:13])[C:5]([H:14])([H:15])[C:6]1=[O:7])([H:9])[H:10])[H:8]>>[O:1]([C:2]([C:3]1([C:6](=[O:7])[H:11])[C:4]([H:12])([H:13])[C:5]1([H:14])[H:15])([H:9])[H:10])[H:8]"
O        2.38687454       0.62400089      -0.09316990
C        1.53811415      -0.49552108      -0.07214922
C        0.16714272      -0.12709329       0.29345761
C       -0.54934811       1.17726259       0.13323333
C       -1.73064163       0.34167801      -0.33119903
C       -0.95880742      -1.03596245       0.32351183
O       -1.05885076      -2.24507794       0.05690159
H        3.25795165       0.35221815      -0.38501949
H        1.86472059      -1.27263578       0.63487832
H        1.47825380      -0.99999728      -1.05211499
H       -1.15258584      -0.63833325       1.43092338
H       -0.65798607       1.79592358       1.02128510
H       -0.08645982       1.77658279      -0.65220288
H       -1.78682155       0.23658497      -1.41081645
H       -2.71155624       0.51037009       0.10248079
15
Frame=3 idx=007231 GeodesicLength=0.2639617370649478 rxn_smarts="[O:1]([C:2]([C@@:3]1([H:11])[C:4]([H:12])([H:13])[C:5]([H:14])([H:15])[C:6]1=[O:7])([H:9])[H:10])[H:8]>>[O:1]([C:2]([C:3]1([C:6](=[O:7])[H:11])[C:4]([H:12])([H:13])[C:5]1([H:14])[H:15])([H:9])[H:10])[H:8]"
O        2.37430888       0.62068963      -0.10534891
C        1.52456935      -0.49852726      -0.07507897
C        0.15515758      -0.12632322       0.30258072
C       -0.55174452       1.18403130       0.14434319
C       -1.71416387       0.34235204      -0.35163199
C       -0.96343371      -1.04676223       0.33084981
O       -1.05006251      -2.25641862       0.07836207
H        3.24311941       0.34756531      -0.40253513
H        1.85867269      -1.27300643       0.63092570
H        1.46241642      -1.00311292      -1.05437647
H       -1.11981894      -0.62706589       1.45270240
H       -0.68202597       1.79029096       1.03765537
H       -0.07857742       1.79336179      -0.62641669
H       -1.75712305       0.24853330      -1.43290579
H       -2.70129436       0.50439225       0.07087469
15
Frame=4 idx=007231 GeodesicLength=0.35218148730474425 rxn_smarts="[O:1]([C:2]([C@@:3]1([H:11])[C:4]([H:12])([H:13])[C:5]([H:14])([H:15])[C:6]1=[O:7])([H:9])[H:10])[H:8]>>[O:1]([C:2]([C:3]1([C:6](=[O:7])[H:11])[C:4]([H:12])([H:13])[C:5]1([H:14])[H:15])([H:9])[H:10])[H:8]"
O        2.36136570       0.61742481      -0.11785756
C        1.51087565      -0.50157130      -0.07804544
C        0.14312736      -0.12562154       0.31168741
C       -0.55436551       1.19062383       0.15557102
C       -1.69697933       0.34311175      -0.37200637
C       -0.96834956      -1.05728520       0.33894993
O       -1.04146777      -2.26710728       0.09969947
H        3.22790646       0.34298788      -0.42030264
H        1.85256606      -1.27327221       0.62695745
H        1.44632167      -1.00645377      -1.05656812
H       -1.08649912      -0.61641549       1.47458087
H       -0.70680517       1.78443875       1.05337088
H       -0.07094778       1.80981434      -0.60010224
H       -1.72638643       0.26088105      -1.45469116
H       -2.69036222       0.49844438       0.03875651
15
Frame=5 idx=007231 GeodesicLength=0.44052231783628953 rxn_smarts="[O:1]([C:2]([C@@:3]1([H:11])[C:4]([H:12])([H:13])[C:5]([H:14])([H:15])[C:6]1=[O:7])([H:9])[H:10])[H:8]>>[O:1]([C:2]([C:3]1([C:6](=[O:7])[H:11])[C:4]([H:12])([H:13])[C:5]1([H:14])[H:15])([H:9])[H:10])[H:8]"
O        2.34804972       0.61420991      -0.13069236
C        1.49703672      -0.50465397      -0.08104504
C        0.13105863      -0.12498110       0.32078398
C       -0.55722498       1.19703457       0.16690011
C       -1.67909912       0.34395451      -0.39231042
C       -0.97355449      -1.06751857       0.34776332
O       -1.03310733      -2.27715383       0.12093698
H        3.21232638       0.33848621      -0.43829094
H        1.84639733      -1.27344172       0.62296976
H        1.42996816      -1.01001495      -1.05868931
H       -1.05254180      -0.60636267       1.49655038
H       -0.73233293       1.77835491       1.06838734
H       -0.06358007       1.82592750      -0.57326419
H       -1.69463734       0.27365735      -1.47614982
H       -2.67875890       0.49250183       0.00615020
15
Frame=6 idx=007231 GeodesicLength=0.5290058001580793 rxn_smarts="[O:1]([C:2]([C@@:3]1([H:11])[C:4]([H:12])([H:13])[C:5]([H:14])([H:15])[C:6]1=[O:7])([H:9])[H:10])[H:8]>>[O:1]([C:2]([C:3]1([C:6](=[O:7])[H:11])[C:4]([H:12])([H:13])[C:5]1([H:14])[H:15])([H:9])[H:10])[H:8]"
O        2.33431481       0.61104597      -0.14385603
C        1.48304747      -0.50777853      -0.08407340
C        0.11895434      -0.12439880       0.32988359
C       -0.56034920       1.20325170       0.17830989
C       -1.66049199       0.34488698      -0.41253032
C       -0.97906094      -1.07744349       0.35725779
O       -1.02503895      -2.28656734       0.14208010
H        3.19634859       0.33407188      -0.45647718
H        1.84016596      -1.27352031       0.61895339
H        1.41334236      -1.01379605      -1.06073306
H       -1.01783584      -0.59688789       1.51860374
H       -0.75863250       1.77202219       1.08266005
H       -0.05649879       1.84167880      -0.54590827
H       -1.66184618       0.28688636      -1.49722847
H       -2.66641914       0.48654853      -0.02694183
15
Frame=7 idx=007231 GeodesicLength=0.6176262479679072 rxn_smarts="[O:1]([C:2]([C@@:3]1([H:11])[C:4]([H:12])([H:13])[C:5]([H:14])([H:15])[C:6]1=[O:7])([H:9])[H:10])[H:8]>>[O:1]([C:2]([C:3]1([C:6](=[O:7])[H:11])[C:4]([H:12])([H:13])[C:5]1([H:14])[H:15])([H:9])[H:10])[H:8]"
O        2.32014866       0.60793468      -0.15734882
C        1.46891228      -0.51094728      -0.08711941
C        0.10682097      -0.12386658       0.33900484
C       -0.56375925       1.20926781       0.18977670
C       -1.64115226       0.34591421      -0.43263775
C       -0.98487641      -1.08704798       0.36739062
O       -1.01730178      -2.29535677       0.16313355
H        3.17997159       0.32974857      -0.47484062
H        1.83387386      -1.27351229       0.61490966
H        1.39643968      -1.01779546      -1.06268775
H       -0.98230405      -0.58797020       1.54069490
H       -0.78571551       1.76542904       1.09613547
H       -0.04971706       1.85704473      -0.51804543
H       -1.62802028       0.30059457      -1.51788671
H       -2.65332043       0.48056293      -0.06047924
15
Frame=8 idx=007231 GeodesicLength=0.7064070303147791 rxn_smarts="[O:1]([C:2]([C@@:3]1([H:11])[C:4]([H:12])([H:13])[C:5]([H:14])([H:15])[C:6]1=[O:7])([H:9])[H:10])[H:8]>>[O:1]([C:2]([C:3]1([C:6](=[O:7])[H:11])[C:4]([H:12])([H:13])[C:5]1([H:14])[H:15])([H:9])[H:10])[H:8]"
O        2.30552566       0.60487756      -0.17116859
C        1.45463269      -0.51416342      -0.09017200
C        0.09465954      -0.12338048       0.34814715
C       -0.56747377       1.21507532       0.20127193
C       -1.62107321       0.34704443      -0.45260168
C       -0.99100602      -1.09632184       0.37811343
O       -1.00993612      -2.30353509       0.18410232
H        3.16318367       0.32552192      -0.49335493
H        1.82751890      -1.27341635       0.61084912
H        1.37926664      -1.02202243      -1.06453648
H       -0.94585660      -0.57956782       1.56275945
H       -0.81358671       1.75854661       1.10876169
H       -0.04325445       1.87200260      -0.48968792
H       -1.59317737       0.31481855      -1.53805852
H       -2.63942284       0.47452047      -0.09442497
15
Frame=9 idx=007231 GeodesicLength=0.7953500100765312 rxn_smarts="[O:1]([C:2]([C@@:3]1([H:11])[C:4]([H:12])([H:13])[C:5]([H:14])([H:15])[C:6]1=[O:7])([H:9])[H:10])[H:8]>>[O:1]([C:2]([C:3]1([C:6](=[O:7])[H:11])[C:4]([H:12])([H:13])[C:5]1([H:14])[H:15])([H:9])[H:10])[H:8]"
O        2.29047787       0.60187276      -0.18532939
C        1.44022919      -0.51742764      -0.09322563
C        0.08248087      -0.12292285       0.35733630
C       -0.57149117       1.22068340       0.21278297
C       -1.60029131       0.34827554      -0.47239411
C       -0.99744015      -1.10524940       0.38934581
O       -1.00293531      -2.31111491       0.20502534
H        3.14601918       0.32137241      -0.51202175
H        1.82110528      -1.27323992       0.60678507
H        1.36183200      -1.02648183      -1.06626661
H       -0.90848460      -0.57155784       1.58468211
H       -0.84228817       1.75129024       1.12053635
H       -0.03707364       1.88655272      -0.46081142
H       -1.55739501       0.32955302      -1.55770461
H       -2.62474505       0.46839430      -0.12874045
15
Frame=10 idx=007231 GeodesicLength=0.8844793522007107 rxn_smarts="[O:1]([C:2]([C@@:3]1([H:11])[C:4]([H:12])([H:13])[C:5]([H:14])([H:15])[C:6]1=[O:7])([H:9])[H:10])[H:8]>>[O:1]([C:2]([C:3]1([C:6](=[O:7])[H:11])[C:4]([H:12])([H:13])[C:5]1([H:14])[H:15])([H:9])[H:10])[H:8]"
O        2.27494883       0.59892461      -0.19980437
C        1.42569243      -0.52074684      -0.09626059
C        0.07027342      -0.12251086       0.36654952
C       -0.57583245       1.22607756       0.22427729
C       -1.57878800       0.34962302      -0.49198063
C       -1.00418624      -1.11384739       0.40106193
O       -0.99635480      -2.31812355       0.22589504
H        3.12844337       0.31734885      -0.53079622
H        1.81462910      -1.27297727       0.60273324
H        1.34415070      -1.03118438      -1.06785919
H       -0.87011647      -0.56395768       1.60639181
H       -0.87171726       1.74369784       1.13137921
H       -0.03123004       1.90065853      -0.43146735
H       -1.52067519       0.34485953      -1.57676780
H       -2.60923740       0.46215804      -0.16335190
15
Frame=11 idx=007231 GeodesicLength=0.9738020825980234 rxn_smarts="[O:1]([C:2]([C@@:3]1([H:11])[C:4]([H:12])([H:13])[C:5]([H:14])([H:15])[C:6]1=[O:7])([H:9])[H:10])[H:8]>>[O:1]([C:2]([C:3]1([C:6](=[O:7])[H:11])[C:4]([H:12])([H:13])[C:5]1([H:14])[H:15])([H:9])[H:10])[H:8]"
O        2.25890384       0.59604206      -0.21459156
C        1.41102984      -0.52412252      -0.09926143
C        0.05803233      -0.12214821       0.37578079
C       -0.58051219       1.23125188       0.23572297
C       -1.55655558       0.35109829      -0.51132080
C       -1.01124859      -1.12211414       0.41320825
O       -0.99021949      -2.32457797       0.24671318
H        3.11043766       0.31345716      -0.54965347
H        1.80809690      -1.27261358       0.59871538
H        1.32624540      -1.03614436      -1.06928845
H       -0.83072256      -0.55672169       1.62777389
H       -0.90182804       1.73574553       1.14124967
H       -0.02574327       1.91428638      -0.40167825
H       -1.48306085       0.36076538      -1.59517026
H       -2.59285539       0.45579580      -0.19819992
15
Frame=12 idx=007231 GeodesicLength=1.0633443056442669 rxn_smarts="[O:1]([C:2]([C@@:3]1([H:11])[C:4]([H:12])([H:13])[C:5]([H:14])([H:15])[C:6]1=[O:7])([H:9])[H:10])[H:8]>>[O:1]([C:2]([C:3]1([C:6](=[O:7])[H:11])[C:4]([H:12])([H:13])[C:5]1([H:14])[H:15])([H:9])[H:10])[H:8]"
O        2.24233506       0.59322543      -0.22967659
C        1.39625197      -0.52755743      -0.10221293
C        0.04575117      -0.12183777       0.38501962
C       -0.58553187       1.23620772       0.24709202
C       -1.53361920       0.35271156      -0.53037614
C       -1.01862142      -1.13006563       0.42571367
O       -0.98452761      -2.33051288       0.26749309
H        3.09200586       0.30970521      -0.56856655
H        1.80150929      -1.27214535       0.59475562
H        1.30814331      -1.04137309      -1.07053529
H       -0.79030938      -0.54977253       1.64869883
H       -0.93255825       1.72741926       1.15011660
H       -0.02061514       1.92742062      -0.37146586
H       -1.44462318       0.37729687      -1.61285725
H       -2.57559061       0.44927803      -0.23319884
15
Frame=13 idx=007231 GeodesicLength=1.153124088733336 rxn_smarts="[O:1]([C:2]([C@@:3]1([H:11])[C:4]([H:12])([H:13])[C:5]([H:14])([H:15])[C:6]1=[O:7])([H:9])[H:10])[H:8]>>[O:1]([C:2]([C:3]1([C:6](=[O:7])[H:11])[C:4]([H:12])([H:13])[C:5]1([H:14])[H:15])([H:9])[H:10])[H:8]"
O        2.22523431       0.59047241      -0.24504418
C        1.38136802      -0.53105764      -0.10509645
C        0.03342185      -0.12158591       0.39425890
C       -0.59088726       1.24094724       0.25835848
C       -1.51000181       0.35447627      -0.54910559
C       -1.02630068      -1.13772279       0.43850442
O       -0.97927144      -2.33596390       0.28824564
H        3.07315207       0.30611593      -0.58751230
H        1.79486886      -1.27156805       0.59088512
H        1.28987622      -1.04688778      -1.07157514
H       -0.74889792      -0.54303381       1.66901968
H       -0.96383067       1.71870712       1.15795101
H       -0.01584047       1.94004092      -0.34085666
H       -1.40544677       0.39447785      -1.62977447
H       -2.55744429       0.44258215      -0.26825846
15
Frame=14 idx=007231 GeodesicLength=1.2431781297369557 rxn_smarts="[O:1]([C:2]([C@@:3]1([H:11])[C:4]([H:12])([H:13])[C:5]([H:14])([H:15])[C:6]1=[O:7])([H:9])[H:10])[H:8]>>[O:1]([C:2]([C:3]1([C:6](=[O:7])[H:11])[C:4]([H:12])([H:13])[C:5]1([H:14])[H:15])([H:9])[H:10])[H:8]"
O        2.20759458       0.58778905      -0.26067405
C        1.36639125      -0.53462671      -0.10789468
C        0.02103004      -0.12140536       0.40347929
C       -0.59657440       1.24546882       0.26948719
C       -1.48573140       0.35640935      -0.56746535
C       -1.03427594      -1.14511759       0.45149674
O       -0.97443215      -2.34097835       0.30897655
H        3.05387801       0.30269207      -0.60646454
H        1.78818116      -1.27087118       0.58713601
H        1.27148942      -1.05270228      -1.07238560
H       -0.70653984      -0.53639971       1.68859296
H       -0.99555415       1.70959452       1.16473413
H       -0.01142077       1.95212112      -0.30988146
H       -1.36562877       0.41233710      -1.64585516
H       -2.53840705       0.43568914      -0.30328203
15
Frame=15 idx=007231 GeodesicLength=1.3335248248938185 rxn_smarts="[O:1]([C:2]([C@@:3]1([H:11])[C:4]([H:12])([H:13])[C:5]([H:14])([H:15])[C:6]1=[O:7])([H:9])[H:10])[H:8]>>[O:1]([C:2]([C:3]1([C:6](=[O:7])[H:11])[C:4]([H:12])([H:13])[C:5]1([H:14])[H:15])([H:9])[H:10])[H:8]"
O        2.18941878       0.58517377      -0.27654651
C        1.35133444      -0.53827017      -0.11058920
C        0.00856272      -0.12130784       0.41266925
C       -0.60257771       1.24977710       0.28044998
C       -1.46084505       0.35853091      -0.58540983
C       -1.04253700      -1.15228772       0.46460290
O       -0.96997676      -2.34560452       0.32969427
H        3.03419328       0.29944491      -0.62540444
H        1.78145213      -1.27004892       0.58354248
H        1.25302575      -1.05883277      -1.07294433
H       -0.66330578      -0.52976662       1.70726794
H       -1.02763735       1.70007663       1.17045324
H       -0.00734493       1.96363997      -0.27856702
H       -1.32527080       0.43089234      -1.66104751
H       -2.51849172       0.42858294      -0.33817122
15
Frame=16 idx=007231 GeodesicLength=1.4241940964289814 rxn_smarts="[O:1]([C:2]([C@@:3]1([H:11])[C:4]([H:12])([H:13])[C:5]([H:14])([H:15])[C:6]1=[O:7])([H:9])[H:10])[H:8]>>[O:1]([C:2]([C:3]1([C:6](=[O:7])[H:11])[C:4]([H:12])([H:13])[C:5]1([H:14])[H:15])([H:9])[H:10])[H:8]"
O        2.17070567       0.58262667      -0.29264368
C        1.33620971      -0.54199319      -0.11316306
C       -0.00399734      -0.12130873       0.42181804
C       -0.60888332       1.25387373       0.29122191
C       -1.43537499       0.36086394      -0.60289410
C       -1.05107502      -1.15927773       0.47773228
O       -0.96586622      -2.34989529       0.35040834
H        3.01410016       0.29638022      -0.64432158
H        1.77468921      -1.26909248       0.58013824
H        1.23452801      -1.06529636      -1.07323091
H       -0.61927884      -0.52302189       1.72490154
H       -1.05998987       1.69014978       1.17509703
H       -0.00360319       1.97457570      -0.24693401
H       -1.28446635       0.45015990      -1.67529490
H       -2.49769763       0.42125573      -0.37283514
