7
Frame=0 idx=002516 GeodesicLength=0.0 rxn_smarts="[O:1]([c:2]1[n:3][o:4][n:5][n:6]1)[H:7]>>[O:1]([C:2]#[N:3])[H:7].[O:4]=[N+:5]=[N-:6]"
O        1.48690601       0.29721957      -0.75734505
C        0.48286014      -0.13856804      -0.01942244
N        0.18011896      -0.92457849       0.83391504
O       -1.84257493      -0.36704975       0.93717832
N       -1.72875072       0.46999780       0.09470749
N       -0.85337457       0.86818116      -0.56620487
H        2.27481513      -0.20520226      -0.52282851
7
Frame=1 idx=002516 GeodesicLength=0.045350446428777634 rxn_smarts="[O:1]([c:2]1[n:3][o:4][n:5][n:6]1)[H:7]>>[O:1]([C:2]#[N:3])[H:7].[O:4]=[N+:5]=[N-:6]"
O        1.50239184       0.33626112      -0.71564198
C        0.50459508      -0.10793748       0.02428067
N        0.18490729      -0.92947502       0.83916705
O       -1.85267386      -0.37257831       0.92727578
N       -1.73653157       0.47752065       0.09235524
N       -0.86004614       0.84332596      -0.58747270
H        2.25735736      -0.24711691      -0.57996405
7
Frame=2 idx=002516 GeodesicLength=0.09123839482445831 rxn_smarts="[O:1]([c:2]1[n:3][o:4][n:5][n:6]1)[H:7]>>[O:1]([C:2]#[N:3])[H:7].[O:4]=[N+:5]=[N-:6]"
O        1.52003849       0.37095973      -0.66944815
C        0.52475241      -0.08547609       0.06493238
N        0.19018357      -0.93393307       0.84792691
O       -1.86156298      -0.37313780       0.91974494
N       -1.74401884       0.47905519       0.08112574
N       -0.86000558       0.82235028      -0.60265259
H        2.23061293      -0.27981823      -0.64162923
7
Frame=3 idx=002516 GeodesicLength=0.13793957698106674 rxn_smarts="[O:1]([c:2]1[n:3][o:4][n:5][n:6]1)[H:7]>>[O:1]([C:2]#[N:3])[H:7].[O:4]=[N+:5]=[N-:6]"
O        1.53904313       0.39761808      -0.62447513
C        0.54508141      -0.06539522       0.10635199
N        0.19704297      -0.93533310       0.86194194
O       -1.87042198      -0.37528462       0.90884910
N       -1.75024524       0.47781739       0.06545955
N       -0.85451837       0.80597248      -0.61245269
H        2.19401808      -0.30539500      -0.70567476
7
Frame=4 idx=002516 GeodesicLength=0.18560708738152495 rxn_smarts="[O:1]([c:2]1[n:3][o:4][n:5][n:6]1)[H:7]>>[O:1]([C:2]#[N:3])[H:7].[O:4]=[N+:5]=[N-:6]"
O        1.55851783       0.41570939      -0.58259450
C        0.56497049      -0.04991823       0.14575916
N        0.20481665      -0.93384949       0.88173993
O       -1.87950602      -0.37942226       0.89437599
N       -1.75476779       0.47640158       0.04831967
N       -0.84517849       0.79318885      -0.61840709
H        2.15114733      -0.32210983      -0.76919315
7
Frame=5 idx=002516 GeodesicLength=0.2343441872990213 rxn_smarts="[O:1]([c:2]1[n:3][o:4][n:5][n:6]1)[H:7]>>[O:1]([C:2]#[N:3])[H:7].[O:4]=[N+:5]=[N-:6]"
O        1.57838410       0.42584262      -0.54627920
C        0.58547531      -0.03438953       0.18530097
N        0.21413188      -0.92912230       0.90525184
O       -1.88801315      -0.38728794       0.87573532
N       -1.75808549       0.47383552       0.02972836
N       -0.83309413       0.78519005      -0.62009519
H        2.10120149      -0.33406842      -0.82964210
7
Frame=6 idx=002516 GeodesicLength=0.2838338835774859 rxn_smarts="[O:1]([c:2]1[n:3][o:4][n:5][n:6]1)[H:7]>>[O:1]([C:2]#[N:3])[H:7].[O:4]=[N+:5]=[N-:6]"
O        1.59799257       0.43051408      -0.51308255
C        0.60496658      -0.02412584       0.22054930
N        0.22266193      -0.92598675       0.92847940
O       -1.89540579      -0.39193360       0.85976319
N       -1.76061768       0.47137758       0.01059856
N       -0.82038407       0.77696410      -0.62182936
H        2.05078645      -0.33680958      -0.88447854
7
Frame=7 idx=002516 GeodesicLength=0.3339846000007647 rxn_smarts="[O:1]([c:2]1[n:3][o:4][n:5][n:6]1)[H:7]>>[O:1]([C:2]#[N:3])[H:7].[O:4]=[N+:5]=[N-:6]"
O        1.61697590       0.43018340      -0.48545004
C        0.62444730      -0.01472485       0.25373944
N        0.23171465      -0.92220460       0.95158671
O       -1.90186187      -0.39746559       0.84317639
N       -1.76271454       0.46872862      -0.00852692
N       -0.80746109       0.77110984      -0.62170323
H        1.99889964      -0.33562682      -0.93282235
7
Frame=8 idx=002516 GeodesicLength=0.3849299752160506 rxn_smarts="[O:1]([c:2]1[n:3][o:4][n:5][n:6]1)[H:7]>>[O:1]([C:2]#[N:3])[H:7].[O:4]=[N+:5]=[N-:6]"
O        1.63607857       0.42577748      -0.46007634
C        0.64356454      -0.00834239       0.28429010
N        0.24037262      -0.91879215       0.97504943
O       -1.90757572      -0.40105884       0.82829499
N       -1.76451784       0.46514904      -0.02893011
N       -0.79426068       0.76582324      -0.62105605
H        1.94633852      -0.32855637      -0.97757202
7
Frame=9 idx=002516 GeodesicLength=0.43659239353421864 rxn_smarts="[O:1]([c:2]1[n:3][o:4][n:5][n:6]1)[H:7]>>[O:1]([C:2]#[N:3])[H:7].[O:4]=[N+:5]=[N-:6]"
O        1.65478304       0.41727908      -0.43907400
C        0.66288994      -0.00253475       0.31317168
N        0.24948056      -0.91383989       0.99962987
O       -1.91268747      -0.40634520       0.81192669
N       -1.76604215       0.46123261      -0.04950913
N       -0.78110078       0.76328520      -0.61831662
H        1.89267685      -0.31907704      -1.01782848
7
Frame=10 idx=002516 GeodesicLength=0.4886697149145057 rxn_smarts="[O:1]([c:2]1[n:3][o:4][n:5][n:6]1)[H:7]>>[O:1]([C:2]#[N:3])[H:7].[O:4]=[N+:5]=[N-:6]"
O        1.67277785       0.40608324      -0.42123970
C        0.68199067       0.00154100       0.33969018
N        0.25834266      -0.90963061       1.02298271
O       -1.91715381      -0.40973857       0.79771463
N       -1.76775640       0.45618505      -0.07111136
N       -0.76860688       0.76160744      -0.61494510
H        1.84040591      -0.30604755      -1.05309136
7
Frame=11 idx=002516 GeodesicLength=0.5412889549318411 rxn_smarts="[O:1]([c:2]1[n:3][o:4][n:5][n:6]1)[H:7]>>[O:1]([C:2]#[N:3])[H:7].[O:4]=[N+:5]=[N-:6]"
O        1.69020188       0.39157427      -0.40709564
C        0.70141132       0.00518401       0.36475459
N        0.26752356      -0.90392123       1.04731339
O       -1.92108218      -0.41445949       0.78238599
N       -1.76935001       0.45017456      -0.09352349
N       -0.75643811       0.76297975      -0.60921428
H        1.78773354      -0.29153187      -1.08462056
7
Frame=12 idx=002516 GeodesicLength=0.5945448589042752 rxn_smarts="[O:1]([c:2]1[n:3][o:4][n:5][n:6]1)[H:7]>>[O:1]([C:2]#[N:3])[H:7].[O:4]=[N+:5]=[N-:6]"
O        1.70723103       0.37333449      -0.39603489
C        0.72127228       0.00803423       0.38850034
N        0.27685030      -0.89652055       1.07320026
O       -1.92437427      -0.41978406       0.76648611
N       -1.77071265       0.44166552      -0.11840965
N       -0.74439046       0.76829964      -0.60024250
H        1.73412376      -0.27502928      -1.11349967
7
Frame=13 idx=002516 GeodesicLength=0.6483284652234674 rxn_smarts="[O:1]([c:2]1[n:3][o:4][n:5][n:6]1)[H:7]>>[O:1]([C:2]#[N:3])[H:7].[O:4]=[N+:5]=[N-:6]"
O        1.72324518       0.35178271      -0.38877030
C        0.74178072       0.01105847       0.41128107
N        0.28661422      -0.88689472       1.10049352
O       -1.92692996      -0.42752123       0.74818279
N       -1.77140019       0.43244549      -0.14405607
N       -0.73289524       0.77722421      -0.58823879
H        1.67958528      -0.25809493      -1.13889222
7
Frame=14 idx=002516 GeodesicLength=0.7026113088008964 rxn_smarts="[O:1]([c:2]1[n:3][o:4][n:5][n:6]1)[H:7]>>[O:1]([C:2]#[N:3])[H:7].[O:4]=[N+:5]=[N-:6]"
O        1.73811986       0.32704881      -0.38451931
C        0.76279689       0.01335730       0.43288113
N        0.29645126      -0.87589601       1.12874316
O       -1.92877931      -0.43537641       0.72951216
N       -1.77120080       0.42091862      -0.17216098
N       -0.72206328       0.78938759      -0.57312365
H        1.62467539      -0.23943991      -1.16133251
7
Frame=15 idx=002516 GeodesicLength=0.7574099222709936 rxn_smarts="[O:1]([c:2]1[n:3][o:4][n:5][n:6]1)[H:7]>>[O:1]([C:2]#[N:3])[H:7].[O:4]=[N+:5]=[N-:6]"
O        1.75124259       0.29844917      -0.38434751
C        0.78468605       0.01625196       0.45367617
N        0.30684871      -0.86081068       1.15999273
O       -1.92934638      -0.44869248       0.70515546
N       -1.76962488       0.41128815      -0.19900727
N       -0.71207006       0.80492531      -0.55478255
H        1.56826397      -0.22141143      -1.18068703
7
Frame=16 idx=002516 GeodesicLength=0.8126631873868709 rxn_smarts="[O:1]([c:2]1[n:3][o:4][n:5][n:6]1)[H:7]>>[O:1]([C:2]#[N:3])[H:7].[O:4]=[N+:5]=[N-:6]"
O        1.76216537       0.26632958      -0.38777392
C        0.80728450       0.01964102       0.47351973
N        0.31765646      -0.84178854       1.19370258
O       -1.92803589      -0.46752177       0.67503245
N       -1.76706166       0.40502679      -0.22333533
N       -0.70315166       0.82229723      -0.53444984
H        1.51114288      -0.20398431      -1.19669567
