11
Frame=0 idx=000121 GeodesicLength=0.0 rxn_smarts="[N:1](=[C:2]1/[C:3]([H:8])([H:9])[O:4][C:5]([H:10])([H:11])[O:6]1)\[H:7]>>[N:1]1([H:7])[C:2](=[O:6])[C:3]([H:8])([H:9])[O:4][C:5]1([H:10])[H:11]"
N        1.62850738      -0.13858800       0.37223648
C        0.75140793      -0.62443577      -0.46668600
C       -0.53618530      -1.01213796       0.26418988
O       -1.25359409       0.27428925       0.61054526
C       -0.79475063       1.33945883       0.18237529
O        0.69316039      -0.65287638      -1.71108695
H        2.42389225       0.21929846      -0.15434099
H       -1.25134144      -1.54675495      -0.35604522
H       -0.39987709      -1.46684863       1.24115027
H       -1.31418936       2.23544346       0.51718989
H        0.05296995       1.37315165      -0.49952789
11
Frame=1 idx=000121 GeodesicLength=0.10108989730343687 rxn_smarts="[N:1](=[C:2]1/[C:3]([H:8])([H:9])[O:4][C:5]([H:10])([H:11])[O:6]1)\[H:7]>>[N:1]1([H:7])[C:2](=[O:6])[C:3]([H:8])([H:9])[O:4][C:5]1([H:10])[H:11]"
N        1.62828754      -0.15110277       0.36057243
C        0.73879380      -0.62962512      -0.46855455
C       -0.53860778      -1.01891946       0.27598347
O       -1.22496667       0.26706651       0.65252624
C       -0.78365157       1.32289900       0.16439282
O        0.64896382      -0.58984934      -1.71266095
H        2.42827332       0.19457425      -0.16611651
H       -1.26459534      -1.54809632      -0.33658657
H       -0.38916334      -1.49476813       1.24138877
H       -1.37623406       2.20729289       0.39557463
H        0.13290028       1.44052848      -0.40651978
11
Frame=2 idx=000121 GeodesicLength=0.20180799106684127 rxn_smarts="[N:1](=[C:2]1/[C:3]([H:8])([H:9])[O:4][C:5]([H:10])([H:11])[O:6]1)\[H:7]>>[N:1]1([H:7])[C:2](=[O:6])[C:3]([H:8])([H:9])[O:4][C:5]1([H:10])[H:11]"
N        1.62652739      -0.16075183       0.34717459
C        0.72535066      -0.63425823      -0.47138856
C       -0.54196607      -1.02429135       0.28723981
O       -1.19957426       0.26190784       0.68675713
C       -0.76902791       1.30551063       0.14361288
O        0.60652188      -0.52858027      -1.71120499
H        2.42899868       0.17621585      -0.18018321
H       -1.27704611      -1.55052264      -0.31722551
H       -0.38022926      -1.51715905       1.24248260
H       -1.41999682       2.17005260       0.27451008
H        0.20044180       1.50187646      -0.30177481
11
Frame=3 idx=000121 GeodesicLength=0.30282339028169514 rxn_smarts="[N:1](=[C:2]1/[C:3]([H:8])([H:9])[O:4][C:5]([H:10])([H:11])[O:6]1)\[H:7]>>[N:1]1([H:7])[C:2](=[O:6])[C:3]([H:8])([H:9])[O:4][C:5]1([H:10])[H:11]"
N        1.62279436      -0.16600068       0.33254914
C        0.71190037      -0.63926265      -0.47475621
C       -0.54614794      -1.02891262       0.29750068
O       -1.17969361       0.25761605       0.71142767
C       -0.74924321       1.28874916       0.12439982
O        0.56722588      -0.47242576      -1.70726264
H        2.42630622       0.16532980      -0.19571848
H       -1.28804625      -1.55527879      -0.29878422
H       -0.37347762      -1.53448255       1.24458844
H       -1.44370944       2.12903479       0.16003867
H        0.25209124       1.55563324      -0.19398285
11
Frame=4 idx=000121 GeodesicLength=0.40452984991142205 rxn_smarts="[N:1](=[C:2]1/[C:3]([H:8])([H:9])[O:4][C:5]([H:10])([H:11])[O:6]1)\[H:7]>>[N:1]1([H:7])[C:2](=[O:6])[C:3]([H:8])([H:9])[O:4][C:5]1([H:10])[H:11]"
N        1.61671142      -0.16597685       0.31739234
C        0.69891209      -0.64488413      -0.47825621
C       -0.55080308      -1.03313459       0.30659186
O       -1.16469871       0.25346727       0.72830819
C       -0.72493855       1.27304889       0.10783850
O        0.53126970      -0.42293480      -1.70144879
H        2.42118860       0.16010515      -0.21154573
H       -1.29765684      -1.56181689      -0.28176501
H       -0.36856541      -1.54814598       1.24716874
H       -1.44966645       2.08712684       0.05537450
H        0.28824723       1.60314509      -0.08965839
11
Frame=5 idx=000121 GeodesicLength=0.5063211695033861 rxn_smarts="[N:1](=[C:2]1/[C:3]([H:8])([H:9])[O:4][C:5]([H:10])([H:11])[O:6]1)\[H:7]>>[N:1]1([H:7])[C:2](=[O:6])[C:3]([H:8])([H:9])[O:4][C:5]1([H:10])[H:11]"
N        1.60868025      -0.16218030       0.30134621
C        0.68642989      -0.65197764      -0.48220694
C       -0.55569507      -1.03749383       0.31466663
O       -1.15614608       0.24888038       0.73549689
C       -0.69846238       1.25786864       0.09037761
O        0.49840186      -0.38121265      -1.69505680
H        2.41265646       0.16234958      -0.22816657
H       -1.30463787      -1.57286641      -0.26528036
H       -0.36477726      -1.55705544       1.25139855
H       -1.43809548       2.05064088      -0.03626080
H        0.31164568       1.64304679       0.01368557
11
Frame=6 idx=000121 GeodesicLength=0.6093080702271195 rxn_smarts="[N:1](=[C:2]1/[C:3]([H:8])([H:9])[O:4][C:5]([H:10])([H:11])[O:6]1)\[H:7]>>[N:1]1([H:7])[C:2](=[O:6])[C:3]([H:8])([H:9])[O:4][C:5]1([H:10])[H:11]"
N        1.59928936      -0.15492021       0.28463418
C        0.67456109      -0.65967740      -0.48635366
C       -0.56061065      -1.04152659       0.32191982
O       -1.15054259       0.24434144       0.73823767
C       -0.66877576       1.24367698       0.07521132
O        0.46771745      -0.34543653      -1.68826442
H        2.40296417       0.16772834      -0.24534473
H       -1.31071603      -1.58470400      -0.24958328
H       -0.36176148      -1.56381631       1.25586633
H       -1.41552405       2.01579702      -0.12115531
H        0.32339848       1.67853725       0.11483209
11
Frame=7 idx=000121 GeodesicLength=0.7128147096948735 rxn_smarts="[N:1](=[C:2]1/[C:3]([H:8])([H:9])[O:4][C:5]([H:10])([H:11])[O:6]1)\[H:7]>>[N:1]1([H:7])[C:2](=[O:6])[C:3]([H:8])([H:9])[O:4][C:5]1([H:10])[H:11]"
N        1.58894302      -0.14517214       0.26723940
C        0.66340156      -0.66819839      -0.49070543
C       -0.56542763      -1.04536880       0.32849183
O       -1.14829713       0.23978781       0.73582309
C       -0.63681109       1.23034759       0.06113019
O        0.43897568      -0.31555826      -1.68159104
H        2.39204220       0.17654414      -0.26308206
H       -1.31537284      -1.59833774      -0.23422364
H       -0.35924173      -1.56794291       1.26110404
H       -1.38271083       1.98515665      -0.19780472
H        0.32449878       1.70874207       0.21361835
11
Frame=8 idx=000121 GeodesicLength=0.8167105540827916 rxn_smarts="[N:1](=[C:2]1/[C:3]([H:8])([H:9])[O:4][C:5]([H:10])([H:11])[O:6]1)\[H:7]>>[N:1]1([H:7])[C:2](=[O:6])[C:3]([H:8])([H:9])[O:4][C:5]1([H:10])[H:11]"
N        1.57800687      -0.13392976       0.24901553
C        0.65281595      -0.67729543      -0.49533654
C       -0.57001303      -1.04886460       0.33458820
O       -1.14948144       0.23525086       0.72824165
C       -0.60281909       1.21791803       0.04844526
O        0.41158742      -0.29060163      -1.67528646
H        2.37988927       0.18840701      -0.28165410
H       -1.31823882      -1.61396720      -0.21873123
H       -0.35685995      -1.56898904       1.26741310
H       -1.34076847       1.95922587      -0.26741349
H        0.31588130       1.73284590       0.31071807
11
Frame=9 idx=000121 GeodesicLength=0.9212840673076759 rxn_smarts="[N:1](=[C:2]1/[C:3]([H:8])([H:9])[O:4][C:5]([H:10])([H:11])[O:6]1)\[H:7]>>[N:1]1([H:7])[C:2](=[O:6])[C:3]([H:8])([H:9])[O:4][C:5]1([H:10])[H:11]"
N        1.56676693      -0.12149813       0.23056843
C        0.64297429      -0.68654423      -0.49990136
C       -0.57436307      -1.05187231       0.34021217
O       -1.15219340       0.23093463       0.71797018
C       -0.56710259       1.20628377       0.03791341
O        0.38558731      -0.26921401      -1.66906882
H        2.36769072       0.20119647      -0.30023689
H       -1.32015399      -1.62984353      -0.20350700
H       -0.35478816      -1.56846687       1.27393051
H       -1.29254631       1.93621604      -0.33025181
H        0.29812827       1.75280816       0.40237117
11
Frame=10 idx=000121 GeodesicLength=1.0262287128661298 rxn_smarts="[N:1](=[C:2]1/[C:3]([H:8])([H:9])[O:4][C:5]([H:10])([H:11])[O:6]1)\[H:7]>>[N:1]1([H:7])[C:2](=[O:6])[C:3]([H:8])([H:9])[O:4][C:5]1([H:10])[H:11]"
N        1.55556185      -0.10870408       0.21226280
C        0.63383593      -0.69566355      -0.50429038
C       -0.57846905      -1.05434343       0.34543633
O       -1.15569551       0.22689080       0.70602957
C       -0.53028323       1.19534789       0.02960810
O        0.36091223      -0.25027840      -1.66278390
H        2.35582664       0.21416470      -0.31834451
H       -1.32131679      -1.64544217      -0.18863608
H       -0.35300543      -1.56691843       1.28039765
H       -1.23994059       1.91566918      -0.38624828
H        0.27257396       1.76927748       0.48656871
11
Frame=11 idx=000121 GeodesicLength=1.1316388429968434 rxn_smarts="[N:1](=[C:2]1/[C:3]([H:8])([H:9])[O:4][C:5]([H:10])([H:11])[O:6]1)\[H:7]>>[N:1]1([H:7])[C:2](=[O:6])[C:3]([H:8])([H:9])[O:4][C:5]1([H:10])[H:11]"
N        1.54470351      -0.09626332       0.19398466
C        0.62524398      -0.70452549      -0.50865181
C       -0.58227436      -1.05623781       0.35036886
O       -1.16020891       0.22312703       0.69196440
C       -0.49266389       1.18504967       0.02321913
O        0.33732007      -0.23300142      -1.65647477
H        2.34440849       0.22691474      -0.33620462
H       -1.32146624      -1.66116292      -0.17373479
H       -0.35133787      -1.56379035       1.28716947
H       -1.18379529       1.89778483      -0.43570853
H        0.24007051       1.78210504       0.56406801
11
Frame=12 idx=000121 GeodesicLength=1.237415455046829 rxn_smarts="[N:1](=[C:2]1/[C:3]([H:8])([H:9])[O:4][C:5]([H:10])([H:11])[O:6]1)\[H:7]>>[N:1]1([H:7])[C:2](=[O:6])[C:3]([H:8])([H:9])[O:4][C:5]1([H:10])[H:11]"
N        1.53444372      -0.08467465       0.17601598
C        0.61712621      -0.71293679      -0.51292679
C       -0.58580829      -1.05755331       0.35504032
O       -1.16497203       0.21967887       0.67686228
C       -0.45459620       1.17526992       0.01884738
O        0.31481641      -0.21653918      -1.64995441
H        2.33374353       0.23888691      -0.35348961
H       -1.32097693      -1.67635574      -0.15897713
H       -0.34979277      -1.55977533       1.29388950
H       -1.12566273       1.88170940      -0.47897740
H        0.20167907       1.79228990       0.63366990
11
Frame=13 idx=000121 GeodesicLength=1.3436661545754118 rxn_smarts="[N:1](=[C:2]1/[C:3]([H:8])([H:9])[O:4][C:5]([H:10])([H:11])[O:6]1)\[H:7]>>[N:1]1([H:7])[C:2](=[O:6])[C:3]([H:8])([H:9])[O:4][C:5]1([H:10])[H:11]"
N        1.52493674      -0.07420316       0.15863187
C        0.60941529      -0.72073645      -0.51705311
C       -0.58913439      -1.05833687       0.35942515
O       -1.16909410       0.21654325       0.66218678
C       -0.41629372       1.16587639       0.01674522
O        0.29343277      -0.20007723      -1.64298096
H        2.32421280       0.24936346      -0.36985837
H       -1.32035853      -1.69028287      -0.14470579
H       -0.34840375      -1.55592724       1.29999180
H       -1.06702804       1.86616942      -0.51659062
H        0.15831493       1.80161131       0.69420802
11
Frame=14 idx=000121 GeodesicLength=1.4501605808935973 rxn_smarts="[N:1](=[C:2]1/[C:3]([H:8])([H:9])[O:4][C:5]([H:10])([H:11])[O:6]1)\[H:7]>>[N:1]1([H:7])[C:2](=[O:6])[C:3]([H:8])([H:9])[O:4][C:5]1([H:10])[H:11]"
N        1.51633535      -0.06515323       0.14199705
C        0.60202819      -0.72786860      -0.52102601
C       -0.59228191      -1.05866202       0.36353978
O       -1.17216150       0.21371009       0.64871053
C       -0.37794996       1.15679236       0.01682423
O        0.27318945      -0.18318140      -1.63542947
H        2.31588765       0.25826763      -0.38512489
H       -1.31989938      -1.70261737      -0.13112244
H       -0.34715212      -1.55281501       1.30523666
H       -1.00898177       1.85063437      -0.54885750
H        0.11098601       1.81089317       0.74525207
11
Frame=15 idx=000121 GeodesicLength=1.5567208274969244 rxn_smarts="[N:1](=[C:2]1/[C:3]([H:8])([H:9])[O:4][C:5]([H:10])([H:11])[O:6]1)\[H:7]>>[N:1]1([H:7])[C:2](=[O:6])[C:3]([H:8])([H:9])[O:4][C:5]1([H:10])[H:11]"
N        1.50870092      -0.05768051       0.12594333
C        0.59479023      -0.73433752      -0.52499502
C       -0.59524767      -1.05856684       0.36745506
O       -1.17468236       0.21111122       0.63580163
C       -0.33963075       1.14803628       0.01895649
O        0.25390570      -0.16559720      -1.62733393
H        2.30862947       0.26577551      -0.39955622
H       -1.31934114      -1.71391840      -0.11795178
H       -0.34593182      -1.54990742       1.30999250
H       -0.95157757       1.83546543      -0.57611393
H        0.06038499       1.81961945       0.78780187
11
Frame=16 idx=000121 GeodesicLength=1.6633551928678445 rxn_smarts="[N:1](=[C:2]1/[C:3]([H:8])([H:9])[O:4][C:5]([H:10])([H:11])[O:6]1)\[H:7]>>[N:1]1([H:7])[C:2](=[O:6])[C:3]([H:8])([H:9])[O:4][C:5]1([H:10])[H:11]"
N        1.50209124      -0.05176677       0.11076188
C        0.58771671      -0.74005458      -0.52880218
C       -0.59808695      -1.05815922       0.37114223
O       -1.17576825       0.20873774       0.62512366
C       -0.30140101       1.13948732       0.02326895
O        0.23568715      -0.14705630      -1.61843967
H        2.30256628       0.27177440      -0.41282425
H       -1.31931558      -1.72330790      -0.10577334
H       -0.34477178      -1.54854263       1.31357239
H       -0.89600137       1.81953637      -0.59879258
H        0.00728357       1.82935157       0.82076291
