14
Frame=0 idx=003586 GeodesicLength=0.0 rxn_smarts="[C:1]1([H:7])([H:8])[C:2]([H:9])([H:10])[C@@:3]2([H:11])[O:4][C:5]([H:12])([H:13])[C@@:6]12[H:14]>>[C@:1]12([H:7])[C:2]([H:9])([H:10])[C@@:3]13[O:4][C:5]([H:12])([H:13])[C@@:6]23[H:14].[H:8][H:11]"
C        1.05663061       0.52349651       0.26305852
C        0.85290883      -0.92824934       0.39682851
C       -0.33257670      -0.64670301      -0.62376495
O       -1.60663149      -0.93462317      -0.08908007
C       -1.54025282       0.32086839       0.58725548
C       -0.27763478       0.86478078      -0.16677252
H        1.96773594       1.09774405       0.19551663
H        1.39293687       0.09604359      -1.53571228
H        0.36319682      -1.25391969       1.31356229
H        1.67545138      -1.59073851       0.14775434
H        0.71525919      -0.40344266      -1.75226752
H       -1.38627513       0.19274285       1.65893369
H       -2.42477409       0.92493444       0.38873024
H       -0.45597461       1.73706579      -0.78404234
14
Frame=1 idx=003586 GeodesicLength=0.09311899177254661 rxn_smarts="[C:1]1([H:7])([H:8])[C:2]([H:9])([H:10])[C@@:3]2([H:11])[O:4][C:5]([H:12])([H:13])[C@@:6]12[H:14]>>[C@:1]12([H:7])[C:2]([H:9])([H:10])[C@@:3]13[O:4][C:5]([H:12])([H:13])[C@@:6]23[H:14].[H:8][H:11]"
C        1.05839559       0.51840699       0.26151648
C        0.85588573      -0.93569046       0.40047692
C       -0.32680093      -0.65072744      -0.61690030
O       -1.59884278      -0.93522337      -0.07795373
C       -1.54282574       0.32719261       0.58704507
C       -0.27971459       0.86272142      -0.16365245
H        1.96196742       1.10568250       0.22129160
H        1.39367765       0.10311644      -1.56090947
H        0.37299055      -1.26876201       1.31794029
H        1.68202748      -1.59210412       0.14691734
H        0.69827500      -0.41142029      -1.77414079
H       -1.39654877       0.21152264       1.66129634
H       -2.42869401       0.92415299       0.37198837
H       -0.44979260       1.74113212      -0.77491566
14
Frame=2 idx=003586 GeodesicLength=0.18577707545839112 rxn_smarts="[C:1]1([H:7])([H:8])[C:2]([H:9])([H:10])[C@@:3]2([H:11])[O:4][C:5]([H:12])([H:13])[C@@:6]12[H:14]>>[C@:1]12([H:7])[C:2]([H:9])([H:10])[C@@:3]13[O:4][C:5]([H:12])([H:13])[C@@:6]23[H:14].[H:8][H:11]"
C        1.06044272       0.51332788       0.25982756
C        0.85908702      -0.94310818       0.40427331
C       -0.32079719      -0.65475438      -0.60994993
O       -1.59076790      -0.93576641      -0.06658356
C       -1.54528463       0.33359488       0.58662989
C       -0.28156906       0.86067550      -0.16054946
H        1.95558368       1.11347979       0.24864507
H        1.39388900       0.11049372      -1.58688909
H        0.38313112      -1.28372943       1.32235495
H        1.68873887      -1.59340860       0.14608359
H        0.68006547      -0.41985604      -1.79631402
H       -1.40690973       0.23075436       1.66331385
H       -2.43230879       0.92313018       0.35484571
H       -0.44330060       1.74516671      -0.76568787
14
Frame=3 idx=003586 GeodesicLength=0.2781076055567341 rxn_smarts="[C:1]1([H:7])([H:8])[C:2]([H:9])([H:10])[C@@:3]2([H:11])[O:4][C:5]([H:12])([H:13])[C@@:6]12[H:14]>>[C@:1]12([H:7])[C:2]([H:9])([H:10])[C@@:3]13[O:4][C:5]([H:12])([H:13])[C@@:6]23[H:14].[H:8][H:11]"
C        1.06279849       0.50827639       0.25797781
C        0.86253476      -0.95048814       0.40821096
C       -0.31454634      -0.65877907      -0.60291630
O       -1.58238503      -0.93623633      -0.05496258
C       -1.54760737       0.34008500       0.58599526
C       -0.28317696       0.85864723      -0.15747935
H        1.94846651       1.12107768       0.27773182
H        1.39355168       0.11820855      -1.61368477
H        0.39364574      -1.29881173       1.32679295
H        1.69560422      -1.59464114       0.14525187
H        0.66051072      -0.42881451      -1.81878232
H       -1.41733323       0.25045492       1.66495167
H       -2.43558527       0.92185792       0.33729288
H       -0.43647793       1.74916322      -0.75637989
14
Frame=4 idx=003586 GeodesicLength=0.37026595804131585 rxn_smarts="[C:1]1([H:7])([H:8])[C:2]([H:9])([H:10])[C@@:3]2([H:11])[O:4][C:5]([H:12])([H:13])[C@@:6]12[H:14]>>[C@:1]12([H:7])[C:2]([H:9])([H:10])[C@@:3]13[O:4][C:5]([H:12])([H:13])[C@@:6]23[H:14].[H:8][H:11]"
C        1.06549533       0.50327387       0.25595341
C        0.86625619      -0.95781232       0.41228332
C       -0.30802436      -0.66279489      -0.59580209
O       -1.57366698      -0.93661441      -0.04308175
C       -1.54976879       0.34667231       0.58512289
C       -0.28451320       0.85664295      -0.15446046
H        1.94046569       1.12839181       0.30871129
H        1.39265373       0.12630578      -1.64132710
H        0.40456635      -1.31399753       1.33124111
H        1.70264695      -1.59578773       0.14441878
H        0.63947139      -0.43837081      -1.84153730
H       -1.42779430       0.27064491       1.66617231
H       -2.43848666       0.92032959       0.31931821
H       -0.42930134       1.75311646      -0.74701264
14
Frame=5 idx=003586 GeodesicLength=0.46239916131223363 rxn_smarts="[C:1]1([H:7])([H:8])[C:2]([H:9])([H:10])[C@@:3]2([H:11])[O:4][C:5]([H:12])([H:13])[C@@:6]12[H:14]>>[C@:1]12([H:7])[C:2]([H:9])([H:10])[C@@:3]13[O:4][C:5]([H:12])([H:13])[C@@:6]23[H:14].[H:8][H:11]"
C        1.06856743       0.49834598       0.25374774
C        0.87028057      -0.96505877       0.41648473
C       -0.30120119      -0.66678959      -0.58861160
O       -1.56458306      -0.93688538      -0.03093933
C       -1.55174358       0.35336725       0.58399524
C       -0.28555188       0.85467123      -0.15150728
H        1.93141812       1.13530801       0.34171647
H        1.39119465       0.13484239      -1.66983952
H        0.41592474      -1.32927156       1.33568529
H        1.70989319      -1.59683093       0.14358555
H        0.61679976      -0.44860622      -1.86456032
H       -1.43827113       0.29133968       1.66694096
H       -2.44097912       0.91854222       0.30091095
H       -0.42174847       1.75702567      -0.73760888
14
Frame=6 idx=003586 GeodesicLength=0.554571304226119 rxn_smarts="[C:1]1([H:7])([H:8])[C:2]([H:9])([H:10])[C@@:3]2([H:11])[O:4][C:5]([H:12])([H:13])[C@@:6]12[H:14]>>[C@:1]12([H:7])[C:2]([H:9])([H:10])[C@@:3]13[O:4][C:5]([H:12])([H:13])[C@@:6]23[H:14].[H:8][H:11]"
C        1.07204938       0.49352708       0.25137892
C        0.87463802      -0.97220299       0.42081747
C       -0.29404394      -0.67074482      -0.58134734
O       -1.55509789      -0.93702232      -0.01853582
C       -1.55350874       0.36017931       0.58258942
C       -0.28626314       0.85274659      -0.14862474
H        1.92116095       1.14168717       0.37681372
H        1.38916588       0.14387961      -1.69923220
H        0.42774796      -1.34463155       1.34011118
H        1.71737202      -1.59774687       0.14275677
H        0.59234444      -0.45959150      -1.88780703
H       -1.44875106       0.31254897       1.66721395
H       -2.44302256       0.91647791       0.28204728
H       -0.41379132       1.76089339      -0.72818158
14
Frame=7 idx=003586 GeodesicLength=0.6469664809118573 rxn_smarts="[C:1]1([H:7])([H:8])[C:2]([H:9])([H:10])[C@@:3]2([H:11])[O:4][C:5]([H:12])([H:13])[C@@:6]12[H:14]>>[C@:1]12([H:7])[C:2]([H:9])([H:10])[C@@:3]13[O:4][C:5]([H:12])([H:13])[C@@:6]23[H:14].[H:8][H:11]"
C        1.07596914       0.48885352       0.24889052
C        0.87935861      -0.97921972       0.42528303
C       -0.28651251      -0.67463580      -0.57401243
O       -1.54517437      -0.93700292      -0.00588153
C       -1.55504720       0.36711435       0.58088091
C       -0.28662073       0.85088436      -0.14581397
H        1.90955840       1.14736157       0.41399307
H        1.38660385       0.15353176      -1.72948286
H        0.44005935      -1.36007981       1.34449870
H        1.72511705      -1.59850591       0.14193859
H        0.56592455      -0.47143399      -1.91120355
H       -1.45924080       0.33427269       1.66694673
H       -2.44458942       0.91413015       0.26271142
H       -0.40540592       1.76472976      -0.71874863
14
Frame=8 idx=003586 GeodesicLength=0.7396975005803622 rxn_smarts="[C:1]1([H:7])([H:8])[C:2]([H:9])([H:10])[C@@:3]2([H:11])[O:4][C:5]([H:12])([H:13])[C@@:6]12[H:14]>>[C@:1]12([H:7])[C:2]([H:9])([H:10])[C@@:3]13[O:4][C:5]([H:12])([H:13])[C@@:6]23[H:14].[H:8][H:11]"
C        1.08035294       0.48436966       0.24635838
C        0.88447059      -0.98608128       0.42989343
C       -0.27856365      -0.67842988      -0.56660876
O       -1.53477409      -0.93679683       0.00700727
C       -1.55634902       0.37417522       0.57884451
C       -0.28659852       0.84910827      -0.14306295
H        1.89649301       1.15212825       0.45312721
H        1.38354932       0.16393610      -1.76054424
H        0.45287383      -1.37563010       1.34883132
H        1.73316271      -1.59907191       0.14114575
H        0.53736611      -0.48424138      -1.93465175
H       -1.46976869       0.35650227       1.66608967
H       -2.44564896       0.91147708       0.24286883
H       -0.39656557       1.76855453      -0.70929867
14
Frame=9 idx=003586 GeodesicLength=0.8333141441927616 rxn_smarts="[C:1]1([H:7])([H:8])[C:2]([H:9])([H:10])[C@@:3]2([H:11])[O:4][C:5]([H:12])([H:13])[C@@:6]12[H:14]>>[C@:1]12([H:7])[C:2]([H:9])([H:10])[C@@:3]13[O:4][C:5]([H:12])([H:13])[C@@:6]23[H:14].[H:8][H:11]"
C        1.08514994       0.48006492       0.24395631
C        0.88997648      -0.99282623       0.43466219
C       -0.27019710      -0.68214106      -0.55912207
O       -1.52389544      -0.93641598       0.02015498
C       -1.55740964       0.38136906       0.57646120
C       -0.28618333       0.84740902      -0.14036387
H        1.88199619       1.15597536       0.49385627
H        1.38027872       0.17538581      -1.79217225
H        0.46617399      -1.39140300       1.35306898
H        1.74153707      -1.59942984       0.14036527
H        0.50638178      -0.49810961      -1.95806539
H       -1.48036223       0.37924116       1.66462235
H       -2.44619900       0.90856121       0.22247231
H       -0.38724744       1.77231918      -0.69989630
14
Frame=10 idx=003586 GeodesicLength=0.9272751285563182 rxn_smarts="[C:1]1([H:7])([H:8])[C:2]([H:9])([H:10])[C@@:3]2([H:11])[O:4][C:5]([H:12])([H:13])[C@@:6]12[H:14]>>[C@:1]12([H:7])[C:2]([H:9])([H:10])[C@@:3]13[O:4][C:5]([H:12])([H:13])[C@@:6]23[H:14].[H:8][H:11]"
C        1.09040434       0.47602711       0.24179323
C        0.89589817      -0.99938370       0.43963851
C       -0.26132377      -0.68568056      -0.55156326
O       -1.51247928      -0.93581105       0.03346960
C       -1.55824893       0.38867451       0.57368690
C       -0.28535662       0.84584229      -0.13765103
H        1.86605100       1.15854898       0.53584148
H        1.37668826       0.18793373      -1.82439083
H        0.47994721      -1.40735776       1.35721727
H        1.75026928      -1.59951734       0.13968934
H        0.47290157      -0.51310507      -1.98127409
H       -1.49111821       0.40241960       1.66246813
H       -2.44620615       0.90529043       0.20147252
H       -0.37742686       1.77611885      -0.69039777
14
Frame=11 idx=003586 GeodesicLength=1.0215022162369347 rxn_smarts="[C:1]1([H:7])([H:8])[C:2]([H:9])([H:10])[C@@:3]2([H:11])[O:4][C:5]([H:12])([H:13])[C@@:6]12[H:14]>>[C@:1]12([H:7])[C:2]([H:9])([H:10])[C@@:3]13[O:4][C:5]([H:12])([H:13])[C@@:6]23[H:14].[H:8][H:11]"
C        1.09608753       0.47228110       0.24004972
C        0.90222939      -1.00575288       0.44486805
C       -0.25190754      -0.68901188      -0.54392535
O       -1.50051239      -0.93497410       0.04690615
C       -1.55889202       0.39607259       0.57048855
C       -0.28411406       0.84442529      -0.13487185
H        1.84880196       1.15972669       0.57856823
H        1.37289755       0.20177334      -1.85704808
H        0.49414830      -1.42355477       1.36126606
H        1.75937623      -1.59930183       0.13917918
H        0.43675646      -0.52927564      -2.00413312
H       -1.50212652       0.42598382       1.65957701
H       -2.44566227       0.90163074       0.17980945
H       -0.36708261       1.77997753      -0.68073399
14
Frame=12 idx=003586 GeodesicLength=1.1159284304103259 rxn_smarts="[C:1]1([H:7])([H:8])[C:2]([H:9])([H:10])[C@@:3]2([H:11])[O:4][C:5]([H:12])([H:13])[C@@:6]12[H:14]>>[C@:1]12([H:7])[C:2]([H:9])([H:10])[C@@:3]13[O:4][C:5]([H:12])([H:13])[C@@:6]23[H:14].[H:8][H:11]"
C        1.10215616       0.46883879       0.23891948
C        0.90895634      -1.01194719       0.45039290
C       -0.24192147      -0.69210615      -0.53620556
O       -1.48799012      -0.93389930       0.06042215
C       -1.55936728       0.40354270       0.56683002
C       -0.28245594       0.84317293      -0.13197451
H        1.83046894       1.15946047       0.62150042
H        1.36905687       0.21713435      -1.88996253
H        0.50872482      -1.44007703       1.36519383
H        1.76887074      -1.59875693       0.13888644
H        0.39774412      -0.54670436      -2.02647639
H       -1.51348727       0.44987658       1.65589872
H       -2.44455574       0.89755477       0.15741145
H       -0.35620017       1.78391037      -0.67083640
14
Frame=13 idx=003586 GeodesicLength=1.2104208704400445 rxn_smarts="[C:1]1([H:7])([H:8])[C:2]([H:9])([H:10])[C@@:3]2([H:11])[O:4][C:5]([H:12])([H:13])[C@@:6]12[H:14]>>[C@:1]12([H:7])[C:2]([H:9])([H:10])[C@@:3]13[O:4][C:5]([H:12])([H:13])[C@@:6]23[H:14].[H:8][H:11]"
C        1.10856815       0.46570023       0.23857132
C        0.91606053      -1.01798554       0.45623780
C       -0.23134525      -0.69493592      -0.52841180
O       -1.47490929      -0.93257755       0.07397263
C       -1.55970207       0.41106534       0.56267471
C       -0.28038723       0.84209850      -0.12891937
H        1.81130894       1.15776182       0.66419302
H        1.36530923       0.23425508      -1.92296514
H        0.52362646      -1.45700164       1.36896549
H        1.77876051      -1.59786264       0.13884995
H        0.35565089      -0.56553364      -2.04811816
H       -1.52529729       0.47403936       1.65137625
H       -2.44287239       0.89303946       0.13421691
H       -0.34477117       1.78793717      -0.66064361
14
Frame=14 idx=003586 GeodesicLength=1.3047908092398157 rxn_smarts="[C:1]1([H:7])([H:8])[C:2]([H:9])([H:10])[C@@:3]2([H:11])[O:4][C:5]([H:12])([H:13])[C@@:6]12[H:14]>>[C@:1]12([H:7])[C:2]([H:9])([H:10])[C@@:3]13[O:4][C:5]([H:12])([H:13])[C@@:6]23[H:14].[H:8][H:11]"
C        1.11528062       0.46285328       0.23914812
C        0.92352088      -1.02389747       0.46241222
C       -0.22016552      -0.69747944      -0.52056125
O       -1.46127366      -0.93099698       0.08752126
C       -1.55991429       0.41862175       0.55797841
C       -0.27790837       0.84120936      -0.12568252
H        1.79158044       1.15471659       0.70632119
H        1.36180980       0.25336890      -1.95591664
H        0.53880707      -1.47441056       1.37253250
H        1.78904911      -1.59660967       0.13909298
H        0.31021750      -0.58592461      -2.06883602
H       -1.53763395       0.49842080       1.64593592
H       -2.44058839       0.88805561       0.11017301
H       -0.33278125       1.79207243      -0.65011919
14
Frame=15 idx=003586 GeodesicLength=1.3988620074009066 rxn_smarts="[C:1]1([H:7])([H:8])[C:2]([H:9])([H:10])[C@@:3]2([H:11])[O:4][C:5]([H:12])([H:13])[C@@:6]12[H:14]>>[C@:1]12([H:7])[C:2]([H:9])([H:10])[C@@:3]13[O:4][C:5]([H:12])([H:13])[C@@:6]23[H:14].[H:8][H:11]"
C        1.12225664       0.46027813       0.24075629
C        0.93131929      -1.02971670       0.46890054
C       -0.20837495      -0.69972164      -0.51268543
O       -1.44708424      -0.92914727       0.10104053
C       -1.56001103       0.42620009       0.55269963
C       -0.27502004       0.84051051      -0.12226195
H        1.77149547       1.15043538       0.74769272
H        1.35874268       0.27473739      -1.98868617
H        0.55423339      -1.49237905       1.37582718
H        1.79974115      -1.59499366       0.13961419
H        0.26115104      -0.60810786      -2.08838893
H       -1.55054598       0.52298931       1.63951058
H       -2.43768281       0.88259189       0.08523382
H       -0.32022062       1.79632348      -0.63925299
14
Frame=16 idx=003586 GeodesicLength=1.4924050383849559 rxn_smarts="[C:1]1([H:7])([H:8])[C:2]([H:9])([H:10])[C@@:3]2([H:11])[O:4][C:5]([H:12])([H:13])[C@@:6]12[H:14]>>[C@:1]12([H:7])[C:2]([H:9])([H:10])[C@@:3]13[O:4][C:5]([H:12])([H:13])[C@@:6]23[H:14].[H:8][H:11]"
C        1.12947094       0.45795386       0.24346849
C        0.93944187      -1.03547506       0.47567038
C       -0.19596738      -0.70164645      -0.50482725
O       -1.43233682      -0.92701004       0.11451034
C       -1.55998659       0.43379527       0.54679078
C       -0.27171512       0.84000866      -0.11867190
H        1.75120468       1.14503678       0.78825755
H        1.35627764       0.29861448      -2.02119231
H        0.56988753      -1.51097279       1.37876633
H        1.81084151      -1.59301208       0.14039405
H        0.20813056      -0.63234976      -2.10649130
H       -1.56406004       0.54772457       1.63201873
H       -2.43411634       0.87663003       0.05934978
H       -0.30707245       1.80070254      -0.62804367
