14
Frame=0 idx=004869 GeodesicLength=0.0 rxn_smarts="[C:1]([C@@:2]([C:3]([O:4][H:13])([H:11])[H:12])([C:5](=[O:6])[H:14])[H:10])([H:7])([H:8])[H:9]>>[C:1](/[C:2]([C:3]([O:4][H:13])([H:11])[H:12])=[C:5](\[O:6][H:10])[H:14])([H:7])([H:8])[H:9]"
C       -1.11320096      -1.15241612       0.06148361
C       -0.20109511       0.06725606       0.18408306
C        1.25149004      -0.25447180      -0.02813986
O        2.00149643       0.94595306       0.06146549
C       -0.69104978       1.29793461      -0.31337103
O       -1.63321407       1.74516480       0.42226225
H       -2.16823170      -0.88447098       0.11766577
H       -0.91092776      -1.86327567       0.86504022
H       -0.95175233      -1.67717565      -0.88873249
H       -1.13620310       0.82067122       1.10987474
H        1.57015124      -0.98079187       0.73137559
H        1.40740582      -0.72793742      -1.01215145
H        2.91445852       0.75970726      -0.16023700
H       -0.33932720       1.90385247      -1.15061885
14
Frame=1 idx=004869 GeodesicLength=0.04456137951407389 rxn_smarts="[C:1]([C@@:2]([C:3]([O:4][H:13])([H:11])[H:12])([C:5](=[O:6])[H:14])[H:10])([H:7])([H:8])[H:9]>>[C:1](/[C:2]([C:3]([O:4][H:13])([H:11])[H:12])=[C:5](\[O:6][H:10])[H:14])([H:7])([H:8])[H:9]"
C       -1.11299659      -1.15520276       0.06472224
C       -0.20481818       0.06662607       0.18219889
C        1.24887597      -0.25288983      -0.02914930
O        1.99898179       0.94695384       0.06143319
C       -0.69551072       1.29284521      -0.32712498
O       -1.64011565       1.74410975       0.40390924
H       -2.16802221      -0.89140527       0.13854298
H       -0.89835273      -1.87017331       0.86145715
H       -0.96381364      -1.67266302      -0.89107997
H       -1.14105906       0.81897089       1.11289446
H        1.56801888      -0.97867828       0.73071701
H        1.40461552      -0.72691176      -1.01272087
H        2.91155509       0.76101252      -0.16204188
H       -0.30735847       1.91740594      -1.13375817
14
Frame=2 idx=004869 GeodesicLength=0.08907622164869508 rxn_smarts="[C:1]([C@@:2]([C:3]([O:4][H:13])([H:11])[H:12])([C:5](=[O:6])[H:14])[H:10])([H:7])([H:8])[H:9]>>[C:1](/[C:2]([C:3]([O:4][H:13])([H:11])[H:12])=[C:5](\[O:6][H:10])[H:14])([H:7])([H:8])[H:9]"
C       -1.11275357      -1.15776576       0.06780707
C       -0.20843414       0.06614893       0.18016795
C        1.24636127      -0.25129748      -0.03015612
O        1.99668344       0.94789450       0.06137539
C       -0.69959299       1.28796141      -0.34104223
O       -1.64692319       1.74286632       0.38530700
H       -2.16744907      -0.89793738       0.15893927
H       -0.88606857      -1.87665580       0.85771460
H       -0.97585271      -1.66811000      -0.89324320
H       -1.14564351       0.81736087       1.11597960
H        1.56585604      -0.97653703       0.73013216
H        1.40196201      -0.72596014      -1.01324158
H        2.90886364       0.76215451      -0.16378957
H       -0.27700865       1.92987705      -1.11595033
14
Frame=3 idx=004869 GeodesicLength=0.13356813228958314 rxn_smarts="[C:1]([C@@:2]([C:3]([O:4][H:13])([H:11])[H:12])([C:5](=[O:6])[H:14])[H:10])([H:7])([H:8])[H:9]>>[C:1](/[C:2]([C:3]([O:4][H:13])([H:11])[H:12])=[C:5](\[O:6][H:10])[H:14])([H:7])([H:8])[H:9]"
C       -1.11248495      -1.16010746       0.07072410
C       -0.21193265       0.06582103       0.17804746
C        1.24395762      -0.24969109      -0.03113594
O        1.99461548       0.94879428       0.06127016
C       -0.70324923       1.28331755      -0.35503170
O       -1.65360060       1.74145521       0.36653939
H       -2.16654836      -0.90406148       0.17879463
H       -0.87412011      -1.88276022       0.85380815
H       -0.98784962      -1.66349538      -0.89526144
H       -1.14996629       0.81581171       1.11920494
H        1.56368516      -0.97436190       0.72965426
H        1.39944162      -0.72508771      -1.01369466
H        2.90640184       0.76314965      -0.16549601
H       -0.24834991       1.94121582      -1.09742334
14
Frame=4 idx=004869 GeodesicLength=0.17799542912477384 rxn_smarts="[C:1]([C@@:2]([C:3]([O:4][H:13])([H:11])[H:12])([C:5](=[O:6])[H:14])[H:10])([H:7])([H:8])[H:9]>>[C:1](/[C:2]([C:3]([O:4][H:13])([H:11])[H:12])=[C:5](\[O:6][H:10])[H:14])([H:7])([H:8])[H:9]"
C       -1.11217979      -1.16221800       0.07345875
C       -0.21530653       0.06563327       0.17588987
C        1.24166383      -0.24807626      -0.03207087
O        1.99275388       0.94965388       0.06109197
C       -0.70644591       1.27891752      -0.36898723
O       -1.66010119       1.73990808       0.34771276
H       -2.16532577      -0.90975641       0.19804283
H       -0.86253548      -1.88848704       0.84972550
H       -0.99973743      -1.65879970      -0.89715585
H       -1.15404728       0.81429276       1.12263850
H        1.56151156      -0.97214500       0.72929419
H        1.39705235      -0.72431109      -1.01405734
H        2.90414864       0.76399050      -0.16716060
H       -0.22145088       1.95139748      -1.07842248
14
Frame=5 idx=004869 GeodesicLength=0.22222345660357548 rxn_smarts="[C:1]([C@@:2]([C:3]([O:4][H:13])([H:11])[H:12])([C:5](=[O:6])[H:14])[H:10])([H:7])([H:8])[H:9]>>[C:1](/[C:2]([C:3]([O:4][H:13])([H:11])[H:12])=[C:5](\[O:6][H:10])[H:14])([H:7])([H:8])[H:9]"
C       -1.11179877      -1.16403199       0.07601495
C       -0.21857617       0.06556019       0.17374509
C        1.23945532      -0.24646075      -0.03294577
O        1.99103507       0.95044336       0.06091025
C       -0.70927069       1.27469583      -0.38274644
O       -1.66639651       1.73823134       0.32892625
H       -2.16373664      -0.91492478       0.21675597
H       -0.85120506      -1.89379972       0.84538117
H       -1.01149687      -1.65389564      -0.89890775
H       -1.15793635       0.81266882       1.12628297
H        1.55934909      -0.96993185       0.72899002
H        1.39475893      -0.72355973      -1.01431012
H        2.90203260       0.76465721      -0.16871723
H       -0.19621394       1.96034771      -1.05937936
14
Frame=6 idx=004869 GeodesicLength=0.2665079962835988 rxn_smarts="[C:1]([C@@:2]([C:3]([O:4][H:13])([H:11])[H:12])([C:5](=[O:6])[H:14])[H:10])([H:7])([H:8])[H:9]>>[C:1](/[C:2]([C:3]([O:4][H:13])([H:11])[H:12])=[C:5](\[O:6][H:10])[H:14])([H:7])([H:8])[H:9]"
C       -1.11142390      -1.16567767       0.07840188
C       -0.22173232       0.06561499       0.17157504
C        1.23735832      -0.24482496      -0.03376848
O        1.98951968       0.95122625       0.06060672
C       -0.71165328       1.27071887      -0.39651725
O       -1.67250685       1.73643143       0.31009974
H       -2.16193477      -0.91976477       0.23485508
H       -0.84027533      -1.89881941       0.84093308
H       -1.02316353      -1.64896779      -0.90056114
H       -1.16158438       0.81105477       1.13018383
H        1.55720355      -0.96763847       0.72884974
H        1.39258943      -0.72292202      -1.01445999
H        2.90012602       0.76522382      -0.17031442
H       -0.17252265       1.96834497      -1.03988385
14
Frame=7 idx=004869 GeodesicLength=0.3107590044221234 rxn_smarts="[C:1]([C@@:2]([C:3]([O:4][H:13])([H:11])[H:12])([C:5](=[O:6])[H:14])[H:10])([H:7])([H:8])[H:9]>>[C:1](/[C:2]([C:3]([O:4][H:13])([H:11])[H:12])=[C:5](\[O:6][H:10])[H:14])([H:7])([H:8])[H:9]"
C       -1.11102818      -1.16712612       0.08063136
C       -0.22478935       0.06577902       0.16942151
C        1.23535430      -0.24317992      -0.03452469
O        1.98817049       0.95198890       0.06022679
C       -0.71363743       1.26693488      -0.41020334
O       -1.67843011       1.73450853       0.29126469
H       -2.15988386      -0.92424439       0.25246066
H       -0.82964162      -1.90356737       0.83629372
H       -1.03476388      -1.64391283      -0.90212736
H       -1.16504162       0.80938360       1.13434569
H        1.55507207      -0.96529583       0.72884910
H        1.39051853      -0.72237199      -1.01449567
H        2.89838789       0.76567601      -0.17189654
H       -0.15028723       1.97542752      -1.02024594
14
Frame=8 idx=004869 GeodesicLength=0.35505090900261693 rxn_smarts="[C:1]([C@@:2]([C:3]([O:4][H:13])([H:11])[H:12])([C:5](=[O:6])[H:14])[H:10])([H:7])([H:8])[H:9]>>[C:1](/[C:2]([C:3]([O:4][H:13])([H:11])[H:12])=[C:5](\[O:6][H:10])[H:14])([H:7])([H:8])[H:9]"
C       -1.11063239      -1.16841008       0.08271633
C       -0.22775726       0.06604935       0.16728644
C        1.23343865      -0.24151877      -0.03520744
O        1.98699018       0.95275045       0.05977786
C       -0.71522893       1.26333834      -0.42384898
O       -1.68418086       1.73245884       0.27236701
H       -2.15761553      -0.92842379       0.26966320
H       -0.81927880      -1.90811153       0.83145322
H       -1.04636329      -1.63873347      -0.90363355
H       -1.16831913       0.80765972       1.13877178
H        1.55295073      -0.96288908       0.72901215
H        1.38854252      -0.72191743      -1.01441488
H        2.89681548       0.76604811      -0.17350723
H       -0.12936137       1.98169935      -1.00043591
14
Frame=9 idx=004869 GeodesicLength=0.3992587952232185 rxn_smarts="[C:1]([C@@:2]([C:3]([O:4][H:13])([H:11])[H:12])([C:5](=[O:6])[H:14])[H:10])([H:7])([H:8])[H:9]>>[C:1](/[C:2]([C:3]([O:4][H:13])([H:11])[H:12])=[C:5](\[O:6][H:10])[H:14])([H:7])([H:8])[H:9]"
C       -1.11021328      -1.16951022       0.08465369
C       -0.23064301       0.06640596       0.16521750
C        1.23159621      -0.23985165      -0.03580714
O        1.98593013       0.95351487       0.05929015
C       -0.71644814       1.25988872      -0.43734914
O       -1.68969378       1.73033783       0.25352359
H       -2.15509381      -0.93227511       0.28652014
H       -0.80913028      -1.91247066       0.82633196
H       -1.05795483      -1.63334913      -0.90508978
H       -1.17145063       0.80582701       1.14349804
H        1.55083489      -0.96045176       0.72930998
H        1.38664019      -0.72152736      -1.01421899
H        2.89536937       0.76633679      -0.17503408
H       -0.10974303       1.98712472      -0.98084594
14
Frame=10 idx=004869 GeodesicLength=0.4434012955636568 rxn_smarts="[C:1]([C@@:2]([C:3]([O:4][H:13])([H:11])[H:12])([C:5](=[O:6])[H:14])[H:10])([H:7])([H:8])[H:9]>>[C:1](/[C:2]([C:3]([O:4][H:13])([H:11])[H:12])=[C:5](\[O:6][H:10])[H:14])([H:7])([H:8])[H:9]"
C       -1.10974343      -1.17040156       0.08644097
C       -0.23344824       0.06687021       0.16313931
C        1.22981600      -0.23817766      -0.03634697
O        1.98493674       0.95421007       0.05866209
C       -0.71733479       1.25658575      -0.45080050
O       -1.69505338       1.72806360       0.23465473
H       -2.15233823      -0.93578674       0.30288444
H       -0.79921810      -1.91652318       0.82103685
H       -1.06940194      -1.62782003      -0.90642826
H       -1.17438028       0.80392600       1.14846506
H        1.54872266      -0.95789865       0.72973828
H        1.38483735      -0.72126797      -1.01384548
H        2.89398526       0.76645912      -0.17662287
H       -0.09137962       1.99176105      -0.96097765
14
Frame=11 idx=004869 GeodesicLength=0.4875714980417999 rxn_smarts="[C:1]([C@@:2]([C:3]([O:4][H:13])([H:11])[H:12])([C:5](=[O:6])[H:14])[H:10])([H:7])([H:8])[H:9]>>[C:1](/[C:2]([C:3]([O:4][H:13])([H:11])[H:12])=[C:5](\[O:6][H:10])[H:14])([H:7])([H:8])[H:9]"
C       -1.10930573      -1.17117162       0.08808493
C       -0.23618669       0.06740756       0.16111445
C        1.22811239      -0.23648119      -0.03681372
O        1.98408296       0.95496264       0.05794786
C       -0.71788362       1.25343327      -0.46414455
O       -1.70014736       1.72574775       0.21588320
H       -2.14943597      -0.93904889       0.31883203
H       -0.78960632      -1.92042333       0.81557085
H       -1.08083959      -1.62220215      -0.90772874
H       -1.17712384       0.80186773       1.15381001
H        1.54663027      -0.95528498       0.73033317
H        1.38310575      -0.72108018      -1.01338065
H        2.89276482       0.76655921      -0.17815415
H       -0.07416704       1.99571419      -0.94135468
14
Frame=12 idx=004869 GeodesicLength=0.5317323480294632 rxn_smarts="[C:1]([C@@:2]([C:3]([O:4][H:13])([H:11])[H:12])([C:5](=[O:6])[H:14])[H:10])([H:7])([H:8])[H:9]>>[C:1](/[C:2]([C:3]([O:4][H:13])([H:11])[H:12])=[C:5](\[O:6][H:10])[H:14])([H:7])([H:8])[H:9]"
C       -1.10886322      -1.17179359       0.08959660
C       -0.23886202       0.06802721       0.15912635
C        1.22646815      -0.23477049      -0.03720968
O        1.98331542       0.95572001       0.05714386
C       -0.71811100       1.25040740      -0.47741706
O       -1.70503048       1.72334782       0.19712686
H       -2.14634974      -0.94205378       0.33442360
H       -0.78021629      -1.92414884       0.80990010
H       -1.09225288      -1.61643940      -0.90896789
H       -1.17968950       0.79967976       1.15947585
H        1.54454512      -0.95259260       0.73107339
H        1.38144574      -0.72097976      -1.01278739
H        2.89164048       0.76658630      -0.17966926
H       -0.05803980       1.99900997      -0.92181531
14
Frame=13 idx=004869 GeodesicLength=0.5758855211949069 rxn_smarts="[C:1]([C@@:2]([C:3]([O:4][H:13])([H:11])[H:12])([C:5](=[O:6])[H:14])[H:10])([H:7])([H:8])[H:9]>>[C:1](/[C:2]([C:3]([O:4][H:13])([H:11])[H:12])=[C:5](\[O:6][H:10])[H:14])([H:7])([H:8])[H:9]"
C       -1.10842210      -1.17227800       0.09097797
C       -0.24148336       0.06872330       0.15717819
C        1.22487904      -0.23304517      -0.03752726
O        1.98263028       0.95649253       0.05624714
C       -0.71802981       1.24749493      -0.49061981
O       -1.70970717       1.72086560       0.17837917
H       -2.14308446      -0.94482420       0.34971000
H       -0.77102433      -1.92773167       0.80399777
H       -1.10367706      -1.61051651      -0.91015864
H       -1.18208488       0.79734523       1.16547290
H        1.54246219      -0.94981171       0.73197964
H        1.37985333      -0.72097782      -1.01205537
H        2.89060790       0.76655480      -0.18117534
H       -0.04291957       2.00170871      -0.90240634
14
Frame=14 idx=004869 GeodesicLength=0.6200607244407711 rxn_smarts="[C:1]([C@@:2]([C:3]([O:4][H:13])([H:11])[H:12])([C:5](=[O:6])[H:14])[H:10])([H:7])([H:8])[H:9]>>[C:1](/[C:2]([C:3]([O:4][H:13])([H:11])[H:12])=[C:5](\[O:6][H:10])[H:14])([H:7])([H:8])[H:9]"
C       -1.10798978      -1.17263658       0.09223963
C       -0.24405394       0.06949781       0.15526935
C        1.22334277      -0.23130279      -0.03776155
O        1.98202915       0.95728216       0.05526471
C       -0.71763311       1.24469065      -0.50378377
O       -1.71420069       1.71828113       0.15957894
H       -2.13964876      -0.94739051       0.36474244
H       -0.76201442      -1.93120185       0.79785337
H       -1.11514949      -1.60442358      -0.91130622
H       -1.18431214       0.79487045       1.17179577
H        1.54037709      -0.94693528       0.73306252
H        1.37832568      -0.72108014      -1.01117769
H        2.88966066       0.76647842      -0.18271285
H       -0.02873302       2.00387011      -0.88306466
14
Frame=15 idx=004869 GeodesicLength=0.6642371053476277 rxn_smarts="[C:1]([C@@:2]([C:3]([O:4][H:13])([H:11])[H:12])([C:5](=[O:6])[H:14])[H:10])([H:7])([H:8])[H:9]>>[C:1](/[C:2]([C:3]([O:4][H:13])([H:11])[H:12])=[C:5](\[O:6][H:10])[H:14])([H:7])([H:8])[H:9]"
C       -1.10755194      -1.17285901       0.09338133
C       -0.24658237       0.07034655       0.15339925
C        1.22184863      -0.22955018      -0.03790406
O        1.98148604       0.95807541       0.05420358
C       -0.71694127       1.24197787      -0.51689910
O       -1.71852023       1.71559398       0.14071043
H       -2.13601412      -0.94974860       0.37957563
H       -0.75313122      -1.93456356       0.79141509
H       -1.12668638      -1.59811612      -0.91240737
H       -1.18638043       0.79223548       1.17843688
H        1.53828092      -0.94395944       0.73433032
H        1.37685790      -0.72129742      -1.01013041
H        2.88876605       0.76634521      -0.18428411
H       -0.01543158       2.00551982      -0.86382746
14
Frame=16 idx=004869 GeodesicLength=0.7084312368804465 rxn_smarts="[C:1]([C@@:2]([C:3]([O:4][H:13])([H:11])[H:12])([C:5](=[O:6])[H:14])[H:10])([H:7])([H:8])[H:9]>>[C:1](/[C:2]([C:3]([O:4][H:13])([H:11])[H:12])=[C:5](\[O:6][H:10])[H:14])([H:7])([H:8])[H:9]"
C       -1.10713048      -1.17296591       0.09440139
C       -0.24907123       0.07126646       0.15157005
C        1.22039986      -0.22777798      -0.03795968
O        1.98100445       0.95889901       0.05304198
C       -0.71595798       1.23935950      -0.52996705
O       -1.72263640       1.71282935       0.12182363
H       -2.13222560      -0.95192197       0.39415451
H       -0.74442886      -1.93782629       0.78472743
H       -1.13827194      -1.59163739      -0.91346882
H       -1.18825984       0.78941787       1.18544661
H        1.53617784      -0.94087191       0.73578846
H        1.37545135      -0.72162514      -1.00892678
H        2.88794156       0.76618175      -0.18587514
H       -0.00299274       2.00667263      -0.84475659
