11
Frame=0 idx=005912 GeodesicLength=0.0 rxn_smarts="[N:1](=[C:2]1[O:3][C:4]([H:8])([H:9])[C:5]([H:10])([H:11])[O:6]1)[H:7]>>[H:8][H:9].[N:1](=[C:2]1/[O+:3]=[C-:4][C:5]([H:10])([H:11])[O:6]1)\[H:7]"
N        2.06620311       1.25506138       0.21918143
C        1.04262117       0.54669054       0.19059996
O       -0.08491125       0.88980952       0.91804792
C       -1.11229283       0.06157696       0.65644808
C       -0.47202619      -1.09296586      -0.05765505
O        0.80546094      -0.59220263      -0.48075417
H        2.80377257       0.85214485      -0.34712436
H       -1.66956262       0.77684398      -0.81306283
H       -2.05010499       0.67515515      -0.04064874
H       -0.30641306      -1.89563001       0.66674835
H       -1.02274687      -1.47648384      -0.91178056
11
Frame=1 idx=005912 GeodesicLength=0.058688633498836726 rxn_smarts="[N:1](=[C:2]1[O:3][C:4]([H:8])([H:9])[C:5]([H:10])([H:11])[O:6]1)[H:7]>>[H:8][H:9].[N:1](=[C:2]1/[O+:3]=[C-:4][C:5]([H:10])([H:11])[O:6]1)\[H:7]"
N        2.08336708       1.24851671       0.22274069
C        1.04838687       0.55801662       0.17261175
O       -0.07916126       0.90610582       0.89737865
C       -1.10417757       0.07151819       0.64490740
C       -0.46371123      -1.08697848      -0.06206228
O        0.81353931      -0.58857079      -0.48655820
H        2.83076357       0.82418222      -0.31427166
H       -1.72065288       0.76615129      -0.80469528
H       -2.09400272       0.66251810      -0.01927505
H       -0.30129392      -1.88768017       0.66513336
H       -1.01305725      -1.47377951      -0.91590939
11
Frame=2 idx=005912 GeodesicLength=0.11715728792110972 rxn_smarts="[N:1](=[C:2]1[O:3][C:4]([H:8])([H:9])[C:5]([H:10])([H:11])[O:6]1)[H:7]>>[H:8][H:9].[N:1](=[C:2]1/[O+:3]=[C-:4][C:5]([H:10])([H:11])[O:6]1)\[H:7]"
N        2.09992655       1.24256598       0.22522685
C        1.05542501       0.56805569       0.15603534
O       -0.07306757       0.92254076       0.87598370
C       -1.09610198       0.08242792       0.63185643
C       -0.45549555      -1.08076252      -0.06677635
O        0.82260948      -0.58604857      -0.49092050
H        2.85590737       0.79701747      -0.28174490
H       -1.77149485       0.75497094      -0.79546975
H       -2.13689538       0.64905054       0.00330795
H       -0.29809251      -1.87951601       0.66357376
H       -1.00272058      -1.47030218      -0.92107253
11
Frame=3 idx=005912 GeodesicLength=0.1753962695909923 rxn_smarts="[N:1](=[C:2]1[O:3][C:4]([H:8])([H:9])[C:5]([H:10])([H:11])[O:6]1)[H:7]>>[H:8][H:9].[N:1](=[C:2]1/[O+:3]=[C-:4][C:5]([H:10])([H:11])[O:6]1)\[H:7]"
N        2.11634198       1.23665848       0.22756764
C        1.06371659       0.57671352       0.14097654
O       -0.06670799       0.93915354       0.85369271
C       -1.08816255       0.09436505       0.61710983
C       -0.44743216      -1.07429744      -0.07177064
O        0.83265392      -0.58467896      -0.49372369
H        2.87923466       0.77127360      -0.25038910
H       -1.82220638       0.74318891      -0.78544539
H       -2.17877222       0.63472444       0.02707221
H       -0.29693427      -1.87101163       0.66212559
H       -0.99173160      -1.46608950      -0.92721571
11
Frame=4 idx=005912 GeodesicLength=0.23341215165017865 rxn_smarts="[N:1](=[C:2]1[O:3][C:4]([H:8])([H:9])[C:5]([H:10])([H:11])[O:6]1)[H:7]>>[H:8][H:9].[N:1](=[C:2]1/[O+:3]=[C-:4][C:5]([H:10])([H:11])[O:6]1)\[H:7]"
N        2.13245203       1.23129828       0.22908575
C        1.07322333       0.58393761       0.12751975
O       -0.06003543       0.95587618       0.83057700
C       -1.08038194       0.10729252       0.60059584
C       -0.43958434      -1.06765673      -0.07709102
O        0.84363264      -0.58455089      -0.49490435
H        2.90116269       0.74682619      -0.21968011
H       -1.87287246       0.73083928      -0.77454763
H       -2.21949053       0.61959978       0.05215524
H       -0.29796235      -1.86227521       0.66073023
H       -0.98014364      -1.46118701      -0.93444069
11
Frame=5 idx=005912 GeodesicLength=0.29124815947888294 rxn_smarts="[N:1](=[C:2]1[O:3][C:4]([H:8])([H:9])[C:5]([H:10])([H:11])[O:6]1)[H:7]>>[H:8][H:9].[N:1](=[C:2]1/[O+:3]=[C-:4][C:5]([H:10])([H:11])[O:6]1)\[H:7]"
N        2.14812175       1.22700328       0.22878003
C        1.08379037       0.58985248       0.11540294
O       -0.05300967       0.97265052       0.80657728
C       -1.07275165       0.12117902       0.58219317
C       -0.43194838      -1.06083440      -0.08282788
O        0.85545337      -0.58560509      -0.49459344
H        2.92213346       0.72309850      -0.18832995
H       -1.92373232       0.71785623      -0.76254726
H       -2.25899872       0.60367868       0.07887396
H       -0.30106420      -1.85324517       0.65925091
H       -0.96799403      -1.45563406      -0.94277976
11
Frame=6 idx=005912 GeodesicLength=0.3487747328554077 rxn_smarts="[N:1](=[C:2]1[O:3][C:4]([H:8])([H:9])[C:5]([H:10])([H:11])[O:6]1)[H:7]>>[H:8][H:9].[N:1](=[C:2]1/[O+:3]=[C-:4][C:5]([H:10])([H:11])[O:6]1)\[H:7]"
N        2.16425453       1.22158113       0.23107893
C        1.09559491       0.59369500       0.10627342
O       -0.04587564       0.98912799       0.78223623
C       -1.06566141       0.13610327       0.56150638
C       -0.42477852      -1.05401018      -0.08862057
O        0.86835792      -0.58849570      -0.49127177
H        2.94113409       0.70364872      -0.16284893
H       -1.97380817       0.70447484      -0.75036403
H       -2.29685095       0.58739667       0.10611977
H       -0.30755378      -1.84404028       0.65818633
H       -0.95481297      -1.44948145      -0.95229576
11
Frame=7 idx=005912 GeodesicLength=0.406308674707991 rxn_smarts="[N:1](=[C:2]1[O:3][C:4]([H:8])([H:9])[C:5]([H:10])([H:11])[O:6]1)[H:7]>>[H:8][H:9].[N:1](=[C:2]1/[O+:3]=[C-:4][C:5]([H:10])([H:11])[O:6]1)\[H:7]"
N        2.18052223       1.21662062       0.23258464
C        1.10821689       0.59685630       0.09773603
O       -0.03843911       1.00610399       0.75629955
C       -1.05876562       0.15220667       0.53844381
C       -0.41778434      -1.04679691      -0.09498809
O        0.88189039      -0.59216167      -0.48683018
H        2.96000841       0.68424301      -0.13615231
H       -2.02517375       0.68979801      -0.73674339
H       -2.33361492       0.56997171       0.13557266
H       -0.31572487      -1.83394324       0.65693220
H       -0.94113532      -1.44289847      -0.96285492
11
Frame=8 idx=005912 GeodesicLength=0.46295773441205024 rxn_smarts="[N:1](=[C:2]1[O:3][C:4]([H:8])([H:9])[C:5]([H:10])([H:11])[O:6]1)[H:7]>>[H:8][H:9].[N:1](=[C:2]1/[O+:3]=[C-:4][C:5]([H:10])([H:11])[O:6]1)\[H:7]"
N        2.19637847       1.21208085       0.23374787
C        1.12152677       0.59847561       0.09128071
O       -0.03075198       1.02267089       0.72975960
C       -1.05221845       0.16926417       0.51266241
C       -0.41118471      -1.03951756      -0.10170282
O        0.89606962      -0.59729295      -0.47985906
H        2.97784394       0.66697257      -0.11131315
H       -2.07624335       0.67449091      -0.72210291
H       -2.36813896       0.55213815       0.16649297
H       -0.32686150      -1.82347359       0.65562688
H       -0.92641987      -1.43580906      -0.97459249
11
Frame=9 idx=005912 GeodesicLength=0.5196724172576848 rxn_smarts="[N:1](=[C:2]1[O:3][C:4]([H:8])([H:9])[C:5]([H:10])([H:11])[O:6]1)[H:7]>>[H:8][H:9].[N:1](=[C:2]1/[O+:3]=[C-:4][C:5]([H:10])([H:11])[O:6]1)\[H:7]"
N        2.21253337       1.20698222       0.23685400
C        1.13565688       0.59855632       0.08743825
O       -0.02292166       1.03897186       0.70274066
C       -1.04625294       0.18746218       0.48377000
C       -0.40503050      -1.03216448      -0.10871876
O        0.91100160      -0.60396489      -0.46990546
H        2.99499514       0.65269491      -0.09086398
H       -2.12753061       0.65826455      -0.70679000
H       -2.40073975       0.53403039       0.19868827
H       -0.34118263      -1.81233214       0.65439695
H       -0.91052890      -1.42850092      -0.98760992
11
Frame=10 idx=005912 GeodesicLength=0.5761840657829753 rxn_smarts="[N:1](=[C:2]1[O:3][C:4]([H:8])([H:9])[C:5]([H:10])([H:11])[O:6]1)[H:7]>>[H:8][H:9].[N:1](=[C:2]1/[O+:3]=[C-:4][C:5]([H:10])([H:11])[O:6]1)\[H:7]"
N        2.22877595       1.20168116       0.24091309
C        1.15028580       0.59771946       0.08510299
O       -0.01493753       1.05541630       0.67429988
C       -1.04066489       0.20694923       0.45122089
C       -0.39920793      -1.02452017      -0.11633488
O        0.92633520      -0.61165872      -0.45774165
H        3.01187187       0.63970101      -0.07181679
H       -2.17982511       0.64049087      -0.68995684
H       -2.43101977       0.51536913       0.23319167
H       -0.35815243      -1.80003245       0.65297002
H       -0.89346117      -1.42111582      -1.00184838
11
Frame=11 idx=005912 GeodesicLength=0.6327195886353875 rxn_smarts="[N:1](=[C:2]1[O:3][C:4]([H:8])([H:9])[C:5]([H:10])([H:11])[O:6]1)[H:7]>>[H:8][H:9].[N:1](=[C:2]1/[O+:3]=[C-:4][C:5]([H:10])([H:11])[O:6]1)\[H:7]"
N        2.24520071       1.19609090       0.24625689
C        1.16529607       0.59626200       0.08392366
O       -0.00685981       1.07225380       0.64390492
C       -1.03548064       0.22789392       0.41427027
C       -0.39373589      -1.01651735      -0.12476600
O        0.94191440      -0.62018595      -0.44357611
H        3.02869069       0.62752151      -0.05343761
H       -2.23361584       0.62062025      -0.67105937
H       -2.45852923       0.49624535       0.27065191
H       -0.37776315      -1.78617359       0.65122770
H       -0.87511732      -1.41401083      -1.01739625
11
Frame=12 idx=005912 GeodesicLength=0.688771551793358 rxn_smarts="[N:1](=[C:2]1[O:3][C:4]([H:8])([H:9])[C:5]([H:10])([H:11])[O:6]1)[H:7]>>[H:8][H:9].[N:1](=[C:2]1/[O+:3]=[C-:4][C:5]([H:10])([H:11])[O:6]1)\[H:7]"
N        2.26148508       1.19003551       0.25292667
C        1.18033187       0.59461204       0.08297664
O        0.00120066       1.08978305       0.61029805
C       -1.03054310       0.25052944       0.37173761
C       -0.38848322      -1.00793697      -0.13432028
O        0.95743285      -0.62915830      -0.42782902
H        3.04524927       0.61508068      -0.03368742
H       -2.28956637       0.59804983      -0.64898122
H       -2.48213114       0.47658860       0.31204001
H       -0.39957932      -1.77027389       0.64894163
H       -0.85539657      -1.40730998      -1.03410267
11
Frame=13 idx=005912 GeodesicLength=0.7444279834763299 rxn_smarts="[N:1](=[C:2]1[O:3][C:4]([H:8])([H:9])[C:5]([H:10])([H:11])[O:6]1)[H:7]>>[H:8][H:9].[N:1](=[C:2]1/[O+:3]=[C-:4][C:5]([H:10])([H:11])[O:6]1)\[H:7]"
N        2.27708599       1.18350582       0.26148067
C        1.19503649       0.59233740       0.08307282
O        0.00899392       1.10724867       0.57421915
C       -1.02599182       0.27461992       0.32269008
C       -0.38365488      -0.99893694      -0.14509481
O        0.97263037      -0.63889001      -0.40988054
H        3.06101013       0.60349710      -0.01413815
H       -2.34649329       0.57258932      -0.62345577
H       -2.50040904       0.45754452       0.35735966
H       -0.42445270      -1.75184859       0.64604415
H       -0.83375515      -1.40166722      -1.05229726
11
Frame=14 idx=005912 GeodesicLength=0.7998020668808264 rxn_smarts="[N:1](=[C:2]1[O:3][C:4]([H:8])([H:9])[C:5]([H:10])([H:11])[O:6]1)[H:7]>>[H:8][H:9].[N:1](=[C:2]1/[O+:3]=[C-:4][C:5]([H:10])([H:11])[O:6]1)\[H:7]"
N        2.29178499       1.17634499       0.27345549
C        1.20915104       0.58945397       0.08493934
O        0.01625014       1.12423763       0.53617432
C       -1.02201358       0.29993101       0.26589016
C       -0.37948676      -0.98991962      -0.15710889
O        0.98730282      -0.64951434      -0.38888009
H        3.07574200       0.59399927       0.00296061
H       -2.40373116       0.54457082      -0.59417669
H       -2.51184727       0.44002258       0.40618518
H       -0.45306445      -1.73134896       0.64236976
H       -0.81008777      -1.39777735      -1.07180918
11
Frame=15 idx=005912 GeodesicLength=0.8552356395810603 rxn_smarts="[N:1](=[C:2]1[O:3][C:4]([H:8])([H:9])[C:5]([H:10])([H:11])[O:6]1)[H:7]>>[H:8][H:9].[N:1](=[C:2]1/[O+:3]=[C-:4][C:5]([H:10])([H:11])[O:6]1)\[H:7]"
N        2.30497774       1.16725067       0.29282622
C        1.22204646       0.58567532       0.08944824
O        0.02227150       1.14012574       0.49654457
C       -1.01873281       0.32571857       0.20063205
C       -0.37621924      -0.98136035      -0.17019444
O        1.00098347      -0.66133447      -0.36402898
H        3.08879056       0.58904074       0.01283809
H       -2.45951436       0.51479964      -0.56112590
H       -2.51485162       0.42566775       0.45757569
H       -0.48575787      -1.70875956       0.63789668
H       -0.78399385      -1.39682404      -1.09241223
11
Frame=16 idx=005912 GeodesicLength=0.9094698944143917 rxn_smarts="[N:1](=[C:2]1[O:3][C:4]([H:8])([H:9])[C:5]([H:10])([H:11])[O:6]1)[H:7]>>[H:8][H:9].[N:1](=[C:2]1/[O+:3]=[C-:4][C:5]([H:10])([H:11])[O:6]1)\[H:7]"
N        2.31411904       1.15998562       0.31015220
C        1.23208654       0.58210301       0.09315819
O        0.02636742       1.15418115       0.45461986
C       -1.01575727       0.35013118       0.12882716
C       -0.37360894      -0.97333493      -0.18472588
O        1.01234915      -0.67289379      -0.33835631
H        3.09868558       0.58388356       0.02835263
H       -2.51076079       0.48493099      -0.52231019
H       -2.50677396       0.41438691       0.51209167
H       -0.51991070      -1.68484182       0.63153534
H       -0.75679606      -1.39853189      -1.11334467
