14
Frame=0 idx=010944 GeodesicLength=0.0 rxn_smarts="[C:1]([c:2]1[c:3]([N:4]([H:11])[H:12])[c:5]([H:13])[c:6]([H:14])[o:7]1)([H:8])([H:9])[H:10]>>[C:1]([C@:3]1([N:4]([H:11])[H:12])[C-:2]=[O+:7][C:6]([H:14])=[C:5]1[H:13])([H:8])([H:9])[H:10]"
C       -1.26150154      -0.38490168       0.54959881
C       -0.31780208      -0.80666782      -1.07375548
C        0.07041494       0.40209312      -0.40852850
N       -0.34647349       1.66476632      -0.81957388
C        1.33752380       0.16858506       0.29093114
C        1.60915491      -1.11612255       0.06456194
O        0.66047058      -1.71641439      -0.70223978
H       -2.23241546      -0.19500768       0.10765522
H       -1.17478569      -1.40853751       0.90146225
H       -1.08764338       0.29001520       1.38974171
H       -0.47957048       2.33802819      -0.08124650
H       -1.13310201       1.62914683      -1.45029434
H        1.92454771       0.87683753       0.85218559
H        2.43118220      -1.74182064       0.37950177
14
Frame=1 idx=010944 GeodesicLength=0.053837884742028025 rxn_smarts="[C:1]([c:2]1[c:3]([N:4]([H:11])[H:12])[c:5]([H:13])[c:6]([H:14])[o:7]1)([H:8])([H:9])[H:10]>>[C:1]([C@:3]1([N:4]([H:11])[H:12])[C-:2]=[O+:7][C:6]([H:14])=[C:5]1[H:13])([H:8])([H:9])[H:10]"
C       -1.27429830      -0.38872736       0.55498083
C       -0.31706892      -0.80884562      -1.05620138
C        0.07011340       0.40203457      -0.39524823
N       -0.33656326       1.66526705      -0.81931788
C        1.34502516       0.17059847       0.29032358
C        1.61740159      -1.11424784       0.06571792
O        0.66312281      -1.71610858      -0.69567283
H       -2.23943886      -0.17702658       0.10939749
H       -1.21424303      -1.41748473       0.89875775
H       -1.10321732       0.26747912       1.41047401
H       -0.49814221       2.33849927      -0.08664308
H       -1.10635241       1.62966186      -1.47060221
H        1.94041609       0.88233645       0.83833854
H        2.45324526      -1.73343611       0.35569549
14
Frame=2 idx=010944 GeodesicLength=0.10740460360432147 rxn_smarts="[C:1]([c:2]1[c:3]([N:4]([H:11])[H:12])[c:5]([H:13])[c:6]([H:14])[o:7]1)([H:8])([H:9])[H:10]>>[C:1]([C@:3]1([N:4]([H:11])[H:12])[C-:2]=[O+:7][C:6]([H:14])=[C:5]1[H:13])([H:8])([H:9])[H:10]"
C       -1.28683662      -0.39260232       0.56072343
C       -0.31641049      -0.81086207      -1.03829044
C        0.06984072       0.40215106      -0.38172532
N       -0.32675908       1.66566852      -0.81903671
C        1.35281644       0.17286838       0.28914246
C        1.62666540      -1.11174102       0.06506603
O        0.66587075      -1.71554813      -0.68932383
H       -2.24586631      -0.15882603       0.11210153
H       -1.25390516      -1.42606303       0.89538515
H       -1.11877357       0.24414135       1.43146444
H       -0.51687861       2.33887684      -0.09321758
H       -1.07904695       1.62962064      -1.49052308
H        1.95548082       0.88762965       0.82526666
H        2.47380266      -1.72531384       0.33296724
14
Frame=3 idx=010944 GeodesicLength=0.16085964174594536 rxn_smarts="[C:1]([c:2]1[c:3]([N:4]([H:11])[H:12])[c:5]([H:13])[c:6]([H:14])[o:7]1)([H:8])([H:9])[H:10]>>[C:1]([C@:3]1([N:4]([H:11])[H:12])[C-:2]=[O+:7][C:6]([H:14])=[C:5]1[H:13])([H:8])([H:9])[H:10]"
C       -1.29931049      -0.39646436       0.56683634
C       -0.31583206      -0.81280199      -1.01992220
C        0.06959917       0.40239222      -0.36786165
N       -0.31697516       1.66590181      -0.81875471
C        1.36082692       0.17532570       0.28762846
C        1.63684739      -1.10867501       0.06281474
O        0.66863225      -1.71484832      -0.68296315
H       -2.25185043      -0.14031244       0.11569856
H       -1.29407621      -1.43414862       0.89137430
H       -1.13456229       0.22007771       1.45270785
H       -0.53569399       2.33914614      -0.10104858
H       -1.05106157       1.62892885      -1.51013776
H        1.96977175       0.89271003       0.81318503
H        2.49368473      -1.71723174       0.31044276
14
Frame=4 idx=010944 GeodesicLength=0.21421947055305907 rxn_smarts="[C:1]([c:2]1[c:3]([N:4]([H:11])[H:12])[c:5]([H:13])[c:6]([H:14])[o:7]1)([H:8])([H:9])[H:10]>>[C:1]([C@:3]1([N:4]([H:11])[H:12])[C-:2]=[O+:7][C:6]([H:14])=[C:5]1[H:13])([H:8])([H:9])[H:10]"
C       -1.31181236      -0.40030565       0.57330525
C       -0.31529355      -0.81468921      -1.00100164
C        0.06939382       0.40273384      -0.35355820
N       -0.30717270       1.66592239      -0.81843881
C        1.36897374       0.17792035       0.28598339
C        1.64787798      -1.10507108       0.05908099
O        0.67138772      -1.71404693      -0.67641799
H       -2.25742169      -0.12145979       0.12011929
H       -1.33490562      -1.44167019       0.88668620
H       -1.15077061       0.19527679       1.47416349
H       -0.55453954       2.33926084      -0.11015815
H       -1.02230918       1.62752734      -1.52942305
H        1.98344311       0.89763729       0.80197205
H        2.51314888      -1.70903600       0.28768717
14
Frame=5 idx=010944 GeodesicLength=0.26751289127262046 rxn_smarts="[C:1]([c:2]1[c:3]([N:4]([H:11])[H:12])[c:5]([H:13])[c:6]([H:14])[o:7]1)([H:8])([H:9])[H:10]>>[C:1]([C@:3]1([N:4]([H:11])[H:12])[C-:2]=[O+:7][C:6]([H:14])=[C:5]1[H:13])([H:8])([H:9])[H:10]"
C       -1.32442699      -0.40410995       0.58012544
C       -0.31476751      -0.81655993      -0.98143765
C        0.06923178       0.40315044      -0.33873339
N       -0.29731248       1.66568093      -0.81807014
C        1.37719535       0.18060587       0.28438137
C        1.65969721      -1.10094728       0.05395099
O        0.67411910      -1.71318975      -0.66952750
H       -2.26261078      -0.10224064       0.12531723
H       -1.37652341      -1.44853805       0.88129207
H       -1.16757235       0.16974865       1.49579536
H       -0.57335989       2.33917424      -0.12058477
H       -0.99270625       1.62534242      -1.54836170
H        1.99658376       0.90243488       0.79160563
H        2.53245247      -1.70055182       0.26424707
14
Frame=6 idx=010944 GeodesicLength=0.3207478375877685 rxn_smarts="[C:1]([c:2]1[c:3]([N:4]([H:11])[H:12])[c:5]([H:13])[c:6]([H:14])[o:7]1)([H:8])([H:9])[H:10]>>[C:1]([C@:3]1([N:4]([H:11])[H:12])[C-:2]=[O+:7][C:6]([H:14])=[C:5]1[H:13])([H:8])([H:9])[H:10]"
C       -1.33718756      -0.40787755       0.58729092
C       -0.31423317      -0.81842109      -0.96118522
C        0.06911830       0.40364291      -0.32334769
N       -0.28740011       1.66515334      -0.81762846
C        1.38546418       0.18337545       0.28289851
C        1.67224601      -1.09628249       0.04742972
O        0.67683608      -1.71227913      -0.66223415
H       -2.26741881      -0.08265051       0.13129324
H       -1.41898010      -1.45467786       0.87513369
H       -1.18506446       0.14346879       1.51757038
H       -0.59212150       2.33884361      -0.13234167
H       -0.96224446       1.62232452      -1.56690073
H        2.00928679       0.90714460       0.78200380
H        2.55169881      -1.69176459       0.24001766
14
Frame=7 idx=010944 GeodesicLength=0.3739314341648662 rxn_smarts="[C:1]([c:2]1[c:3]([N:4]([H:11])[H:12])[c:5]([H:13])[c:6]([H:14])[o:7]1)([H:8])([H:9])[H:10]>>[C:1]([C@:3]1([N:4]([H:11])[H:12])[C-:2]=[O+:7][C:6]([H:14])=[C:5]1[H:13])([H:8])([H:9])[H:10]"
C       -1.35012053      -0.41160728       0.59479965
C       -0.31366800      -0.82028812      -0.94019407
C        0.06906371       0.40420744      -0.30736554
N       -0.27743522       1.66430967      -0.81709877
C        1.39375848       0.18621448       0.28161031
C        1.68547563      -1.09105619       0.03950560
O        0.67955472      -1.71132229      -0.65447405
H       -2.27184045      -0.06268829       0.13805491
H       -1.46230315      -1.46000460       0.86816261
H       -1.20334150       0.11642228       1.53945122
H       -0.61078510       2.33821684      -0.14544781
H       -0.93090775       1.61841711      -1.58499168
H        2.02161801       0.91178788       0.77312592
H        2.57093114      -1.68260891       0.21486167
14
Frame=8 idx=010944 GeodesicLength=0.42706073845516623 rxn_smarts="[C:1]([c:2]1[c:3]([N:4]([H:11])[H:12])[c:5]([H:13])[c:6]([H:14])[o:7]1)([H:8])([H:9])[H:10]>>[C:1]([C@:3]1([N:4]([H:11])[H:12])[C-:2]=[O+:7][C:6]([H:14])=[C:5]1[H:13])([H:8])([H:9])[H:10]"
C       -1.36323237      -0.41530623       0.60264814
C       -0.31305362      -0.82216830      -0.91843039
C        0.06907780       0.40484686      -0.29077090
N       -0.26743139       1.66313191      -0.81646697
C        1.40206564       0.18911526       0.28055246
C        1.69931944      -1.08524017       0.03014853
O        0.68229781      -1.71031543      -0.64622358
H       -2.27585627      -0.04236063       0.14562855
H       -1.50648690      -1.46443798       0.86031853
H       -1.22247359       0.08858314       1.56139530
H       -0.62931013       2.33723845      -0.15990833
H       -0.89871206       1.61358189      -1.60256555
H        2.03364398       0.91638517       0.76489707
H        2.59015164      -1.67305394       0.18877714
14
Frame=9 idx=010944 GeodesicLength=0.48013256441849866 rxn_smarts="[C:1]([c:2]1[c:3]([N:4]([H:11])[H:12])[c:5]([H:13])[c:6]([H:14])[o:7]1)([H:8])([H:9])[H:10]>>[C:1]([C@:3]1([N:4]([H:11])[H:12])[C-:2]=[O+:7][C:6]([H:14])=[C:5]1[H:13])([H:8])([H:9])[H:10]"
C       -1.37653942      -0.41896916       0.61083456
C       -0.31236283      -0.82408492      -0.89583821
C        0.06917532       0.40555740      -0.27353775
N       -0.25738873       1.66158072      -0.81573184
C        1.41037280       0.19206509       0.27979526
C        1.71370459      -1.07881192       0.01937880
O        0.68509541      -1.70926149      -0.63740966
H       -2.27945089      -0.02166298       0.15403369
H       -1.55153349      -1.46787257       0.85155134
H       -1.24254407       0.05993977       1.58335669
H       -0.64764466       2.33584449      -0.17575108
H       -0.86565438       1.60774815      -1.61957732
H        2.04539448       0.92094215       0.75733158
H        2.60937587      -1.66301474       0.16156394
14
Frame=10 idx=010944 GeodesicLength=0.533130326305837 rxn_smarts="[C:1]([c:2]1[c:3]([N:4]([H:11])[H:12])[c:5]([H:13])[c:6]([H:14])[o:7]1)([H:8])([H:9])[H:10]>>[C:1]([C@:3]1([N:4]([H:11])[H:12])[C-:2]=[O+:7][C:6]([H:14])=[C:5]1[H:13])([H:8])([H:9])[H:10]"
C       -1.39003030      -0.42260585       0.61935294
C       -0.31157273      -0.82604334      -0.87239219
C        0.06936960       0.40634782      -0.25566684
N       -0.24733057       1.65963897      -0.81488953
C        1.41868018       0.19506476       0.27934899
C        1.72852666      -1.07174641       0.00721018
O        0.68798742      -1.70814354      -0.62802950
H       -2.28259106      -0.00059972       0.16331890
H       -1.59740287      -1.47021705       0.84178601
H       -1.26359612       0.03045155       1.60528486
H       -0.66574599       2.33396963      -0.19297485
H       -0.83178095       1.60087985      -1.63595604
H        2.05692535       0.92547809       0.75035777
H        2.62856138      -1.65247477       0.13324930
14
Frame=11 idx=010944 GeodesicLength=0.5860200633118269 rxn_smarts="[C:1]([c:2]1[c:3]([N:4]([H:11])[H:12])[c:5]([H:13])[c:6]([H:14])[o:7]1)([H:8])([H:9])[H:10]>>[C:1]([C@:3]1([N:4]([H:11])[H:12])[C-:2]=[O+:7][C:6]([H:14])=[C:5]1[H:13])([H:8])([H:9])[H:10]"
C       -1.40359922      -0.42627056       0.62819274
C       -0.31066922      -0.82798427      -0.84817689
C        0.06967569       0.40727236      -0.23723674
N       -0.23736050       1.65735559      -0.81392306
C        1.42703682       0.19817453       0.27903208
C        1.74371135      -1.06395024      -0.00655907
O        0.69104781      -1.70686123      -0.61831942
H       -2.28519638       0.02077638       0.17362469
H       -1.64390368      -1.47143476       0.83090767
H       -1.28551673      -0.00001496       1.62713297
H       -0.68362869       2.33156272      -0.21148822
H       -0.79728101       1.59303868      -1.65158117
H        2.06835694       0.93006735       0.74369081
H        2.64732683      -1.64173159       0.10470361
14
Frame=12 idx=010944 GeodesicLength=0.6388016206156105 rxn_smarts="[C:1]([c:2]1[c:3]([N:4]([H:11])[H:12])[c:5]([H:13])[c:6]([H:14])[o:7]1)([H:8])([H:9])[H:10]>>[C:1]([C@:3]1([N:4]([H:11])[H:12])[C-:2]=[O+:7][C:6]([H:14])=[C:5]1[H:13])([H:8])([H:9])[H:10]"
C       -1.41717755      -0.43000792       0.63734946
C       -0.30963571      -0.82987756      -0.82324521
C        0.07011636       0.40836740      -0.21830542
N       -0.22754387       1.65476330      -0.81283364
C        1.43548039       0.20143183       0.27872930
C        1.75915272      -1.05537116      -0.02200084
O        0.69433146      -1.70534712      -0.60844197
H       -2.28720856       0.04242347       0.18506746
H       -1.69089444      -1.47146942       0.81883703
H       -1.30824620      -0.03156747       1.64885162
H       -0.70128369       2.32856805      -0.23122564
H       -0.76229121       1.58427173      -1.66638268
H        2.07978280       0.93476282       0.73713749
H        2.66541749      -1.63094796       0.07646305
14
Frame=13 idx=010944 GeodesicLength=0.6915948518853812 rxn_smarts="[C:1]([c:2]1[c:3]([N:4]([H:11])[H:12])[c:5]([H:13])[c:6]([H:14])[o:7]1)([H:8])([H:9])[H:10]>>[C:1]([C@:3]1([N:4]([H:11])[H:12])[C-:2]=[O+:7][C:6]([H:14])=[C:5]1[H:13])([H:8])([H:9])[H:10]"
C       -1.43056755      -0.43397376       0.64683421
C       -0.30850682      -0.83157631      -0.79787746
C        0.07072691       0.40975785      -0.19907323
N       -0.21807690       1.65205620      -0.81162411
C        1.44417060       0.20498886       0.27798130
C        1.77486524      -1.04580284      -0.03971970
O        0.69791228      -1.70339123      -0.59901186
H       -2.28854182       0.06419398       0.19793688
H       -1.73805014      -1.47042129       0.80546659
H       -1.33145050      -0.06453595       1.67045513
H       -0.71878885       2.32500254      -0.25196294
H       -0.72721453       1.57486674      -1.68027139
H        2.09148808       0.93973974       0.73011914
H        2.68203399      -1.62090454       0.05074744
14
Frame=14 idx=010944 GeodesicLength=0.7439863259598078 rxn_smarts="[C:1]([c:2]1[c:3]([N:4]([H:11])[H:12])[c:5]([H:13])[c:6]([H:14])[o:7]1)([H:8])([H:9])[H:10]>>[C:1]([C@:3]1([N:4]([H:11])[H:12])[C-:2]=[O+:7][C:6]([H:14])=[C:5]1[H:13])([H:8])([H:9])[H:10]"
C       -1.44351542      -0.43806627       0.65659829
C       -0.30721325      -0.83303509      -0.77211080
C        0.07151405       0.41146155      -0.17970384
N       -0.20914763       1.64919107      -0.81033705
C        1.45305477       0.20882572       0.27634615
C        1.79089240      -1.03499342      -0.06081721
O        0.70189214      -1.70087695      -0.59024368
H       -2.28899489       0.08612297       0.21246363
H       -1.78479540      -1.46800002       0.79087940
H       -1.35479364      -0.09885070       1.69167237
H       -0.73618523       2.32078717      -0.27364653
H       -0.69238380       1.56475272      -1.69308326
H        2.10293732       0.94465712       0.72319598
H        2.69673859      -1.61197585       0.02878656
14
Frame=15 idx=010944 GeodesicLength=0.7959701456314411 rxn_smarts="[C:1]([c:2]1[c:3]([N:4]([H:11])[H:12])[c:5]([H:13])[c:6]([H:14])[o:7]1)([H:8])([H:9])[H:10]>>[C:1]([C@:3]1([N:4]([H:11])[H:12])[C-:2]=[O+:7][C:6]([H:14])=[C:5]1[H:13])([H:8])([H:9])[H:10]"
C       -1.45666297      -0.44211515       0.66658520
C       -0.30558386      -0.83464880      -0.74521532
C        0.07247818       0.41317694      -0.15960313
N       -0.20018491       1.64569648      -0.80886654
C        1.46175851       0.21256844       0.27540182
C        1.80615471      -1.02408061      -0.08114124
O        0.70613227      -1.69830826      -0.58074240
H       -2.28872551       0.10853711       0.22805162
H       -1.83224497      -1.46376042       0.77477782
H       -1.37959883      -0.13416236       1.71237339
H       -0.75314504       2.31557677      -0.29661299
H       -0.65674781       1.55338501      -1.70493006
H        2.11445063       0.94971030       0.71599927
H        2.71191959      -1.60157544       0.00392254
14
Frame=16 idx=010944 GeodesicLength=0.8479662862260767 rxn_smarts="[C:1]([c:2]1[c:3]([N:4]([H:11])[H:12])[c:5]([H:13])[c:6]([H:14])[o:7]1)([H:8])([H:9])[H:10]>>[C:1]([C@:3]1([N:4]([H:11])[H:12])[C-:2]=[O+:7][C:6]([H:14])=[C:5]1[H:13])([H:8])([H:9])[H:10]"
C       -1.47011596      -0.44614692       0.67687672
C       -0.30372026      -0.83648382      -0.71715637
C        0.07366298       0.41494806      -0.13883854
N       -0.19113364       1.64161990      -0.80746705
C        1.47043895       0.21627992       0.27515784
C        1.82078246      -1.01296397      -0.10098030
O        0.71057389      -1.69574590      -0.57040681
H       -2.28789049       0.13136033       0.24480910
H       -1.88036450      -1.45764980       0.75740930
H       -1.40592528      -0.17049377       1.73261113
H       -0.76948413       2.30940004      -0.32109678
H       -0.62039621       1.54072073      -1.71608440
H        2.12591949       0.95477029       0.70947390
H        2.72765271      -1.58961509      -0.02430773
