12
Frame=0 idx=011847 GeodesicLength=0.0 rxn_smarts="[C:1]([N:2]([C:3]([C:4]#[N:5])([C:6]#[N:7])[H:12])[H:11])([H:8])([H:9])[H:10]>>[C:1]([N+:2]([C-:3]([C:4]#[N:5])[C:6]#[N:7])([H:11])[H:12])([H:8])([H:9])[H:10]"
C       -1.52764692       0.29837385      -0.01817379
N       -0.47800317      -0.71597868      -0.03888507
C        0.98723092      -0.25834130       0.17492345
C        1.82806770      -0.42525755      -0.95173532
N        2.47267924      -0.64138249      -1.88149172
C        1.11677801       0.85957344       1.03262055
N        1.18711166       1.74214973       1.76963174
H       -1.51076078       0.81549758       0.93883113
H       -2.49135624      -0.19392051      -0.13679087
H       -1.36919052       1.02649848      -0.81737004
H       -0.49067086      -1.31820533      -0.85059980
H        0.27576096      -1.18900723       0.77903971
12
Frame=1 idx=011847 GeodesicLength=0.06886039222319144 rxn_smarts="[C:1]([N:2]([C:3]([C:4]#[N:5])([C:6]#[N:7])[H:12])[H:11])([H:8])([H:9])[H:10]>>[C:1]([N+:2]([C-:3]([C:4]#[N:5])[C:6]#[N:7])([H:11])[H:12])([H:8])([H:9])[H:10]"
C       -1.54451899       0.29192621       0.01027773
N       -0.47614484      -0.69889326      -0.07505490
C        0.97780959      -0.24309824       0.15477696
C        1.86491329      -0.46123178      -0.92694289
N        2.53685846      -0.71211981      -1.82821033
C        1.11420723       0.88916285       0.99340243
N        1.19171621       1.77882096       1.72111721
H       -1.53329762       0.74966513       0.99721095
H       -2.50044654      -0.20928548      -0.13272227
H       -1.40568608       1.06766865      -0.74654181
H       -0.49554187      -1.25952779      -0.91588103
H        0.27013117      -1.19308742       0.74856793
12
Frame=2 idx=011847 GeodesicLength=0.1359127684501799 rxn_smarts="[C:1]([N:2]([C:3]([C:4]#[N:5])([C:6]#[N:7])[H:12])[H:11])([H:8])([H:9])[H:10]>>[C:1]([N+:2]([C-:3]([C:4]#[N:5])[C:6]#[N:7])([H:11])[H:12])([H:8])([H:9])[H:10]"
C       -1.55984247       0.28399286       0.03906405
N       -0.47451719      -0.68011563      -0.11241941
C        0.96899963      -0.22870903       0.13436419
C        1.89969787      -0.49826101      -0.89851532
N        2.59691150      -0.78243538      -1.77027506
C        1.11199922       0.91839813       0.95280449
N        1.19384447       1.81687882       1.66914604
H       -1.54994698       0.68026993       1.05233296
H       -2.50862297      -0.22381764      -0.12729089
H       -1.44159000       1.10467553      -0.67238633
H       -0.50025669      -1.19321991      -0.98292318
H        0.26332361      -1.19765666       0.71609845
12
Frame=3 idx=011847 GeodesicLength=0.20214305630970314 rxn_smarts="[C:1]([N:2]([C:3]([C:4]#[N:5])([C:6]#[N:7])[H:12])[H:11])([H:8])([H:9])[H:10]>>[C:1]([N+:2]([C-:3]([C:4]#[N:5])[C:6]#[N:7])([H:11])[H:12])([H:8])([H:9])[H:10]"
C       -1.57345942       0.27435646       0.06836394
N       -0.47338695      -0.65953627      -0.15092966
C        0.96054999      -0.21571155       0.11360766
C        1.93093970      -0.53592158      -0.86761053
N        2.65469001      -0.85214921      -1.70597179
C        1.11018574       0.94651806       0.91068630
N        1.19393666       1.85694815       1.61145837
H       -1.56134400       0.60652796       1.10442052
H       -2.51575441      -0.23748796      -0.12112100
H       -1.47648408       1.13825666      -0.59329204
H       -0.50476644      -1.11863379      -1.05088703
H        0.25489319      -1.20316692       0.68127525
12
Frame=4 idx=011847 GeodesicLength=0.2674547388400929 rxn_smarts="[C:1]([N:2]([C:3]([C:4]#[N:5])([C:6]#[N:7])[H:12])[H:11])([H:8])([H:9])[H:10]>>[C:1]([N+:2]([C-:3]([C:4]#[N:5])[C:6]#[N:7])([H:11])[H:12])([H:8])([H:9])[H:10]"
C       -1.58523427       0.26308676       0.09730771
N       -0.47265387      -0.63755140      -0.18956360
C        0.95276214      -0.20414818       0.09341639
C        1.95814303      -0.57286882      -0.83523794
N        2.70824029      -0.92063760      -1.63731937
C        1.10902258       0.97385280       0.86777394
N        1.19243365       1.89794024       1.55059163
H       -1.56760086       0.53044336       1.15201634
H       -2.52198360      -0.25042893      -0.11461407
H       -1.50930235       1.16688152      -0.51161096
H       -0.50900578      -1.03675016      -1.11761203
H        0.24517903      -1.20981959       0.64485196
12
Frame=5 idx=011847 GeodesicLength=0.33124522162998976 rxn_smarts="[C:1]([N:2]([C:3]([C:4]#[N:5])([C:6]#[N:7])[H:12])[H:11])([H:8])([H:9])[H:10]>>[C:1]([N+:2]([C-:3]([C:4]#[N:5])[C:6]#[N:7])([H:11])[H:12])([H:8])([H:9])[H:10]"
C       -1.59443251       0.25040221       0.12454316
N       -0.47167353      -0.61466956      -0.22672578
C        0.94564283      -0.19380362       0.07510558
C        1.98081824      -0.60768063      -0.80140062
N        2.75272244      -0.98629854      -1.56788644
C        1.10812448       1.00088762       0.82425801
N        1.18962133       1.93754654       1.48984384
H       -1.56880619       0.45408320       1.19322617
H       -2.52621429      -0.26272427      -0.10900808
H       -1.53821959       1.18939160      -0.43079522
H       -0.51248077      -0.94976088      -1.17964150
H        0.23489756      -1.21737365       0.60848086
12
Frame=6 idx=011847 GeodesicLength=0.39476612532948446 rxn_smarts="[C:1]([N:2]([C:3]([C:4]#[N:5])([C:6]#[N:7])[H:12])[H:11])([H:8])([H:9])[H:10]>>[C:1]([N+:2]([C-:3]([C:4]#[N:5])[C:6]#[N:7])([H:11])[H:12])([H:8])([H:9])[H:10]"
C       -1.60169273       0.23641931       0.15042897
N       -0.47096000      -0.59117658      -0.26255882
C        0.93895325      -0.18507739       0.05850437
C        1.99915291      -0.64079464      -0.76731489
N        2.79173566      -1.04877020      -1.49677487
C        1.10783896       1.02693144       0.78051883
N        1.18624997       1.97703396       1.42718428
H       -1.56652743       0.37711459       1.22904210
H       -2.52943162      -0.27394013      -0.10451780
H       -1.56355145       1.20693539      -0.34936832
H       -0.51545409      -0.85826478      -1.23671124
H        0.22368658      -1.22641096       0.57156740
12
Frame=7 idx=011847 GeodesicLength=0.45884466881286035 rxn_smarts="[C:1]([N:2]([C:3]([C:4]#[N:5])([C:6]#[N:7])[H:12])[H:11])([H:8])([H:9])[H:10]>>[C:1]([N+:2]([C-:3]([C:4]#[N:5])[C:6]#[N:7])([H:11])[H:12])([H:8])([H:9])[H:10]"
C       -1.60707677       0.22117775       0.17531733
N       -0.47062838      -0.56693955      -0.29732678
C        0.93233939      -0.17794232       0.04335662
C        2.01303715      -0.67200603      -0.73396683
N        2.82689384      -1.10857241      -1.42225558
C        1.10819236       1.05134470       0.73683234
N        1.18201779       2.01696551       1.36066306
H       -1.56113941       0.29878337       1.25998782
H       -2.53168561      -0.28370840      -0.10105955
H       -1.58530253       1.21999693      -0.26619918
H       -0.51814593      -0.76185162      -1.28846049
H        0.21149809      -1.23724795       0.53311123
12
Frame=8 idx=011847 GeodesicLength=0.5231792405957444 rxn_smarts="[C:1]([N:2]([C:3]([C:4]#[N:5])([C:6]#[N:7])[H:12])[H:11])([H:8])([H:9])[H:10]>>[C:1]([N+:2]([C-:3]([C:4]#[N:5])[C:6]#[N:7])([H:11])[H:12])([H:8])([H:9])[H:10]"
C       -1.61076552       0.20477025       0.19867642
N       -0.47032514      -0.54209384      -0.33057050
C        0.92585582      -0.17115427       0.02947105
C        2.02330641      -0.69947367      -0.70224121
N        2.85633379      -1.16758036      -1.34536882
C        1.10885914       1.07548136       0.69280805
N        1.17768561       2.05599211       1.29359795
H       -1.55321511       0.21992202       1.28557821
H       -2.53297852      -0.29240536      -0.09895294
H       -1.60341357       1.22811829      -0.18297429
H       -0.52077381      -0.66264689      -1.33351309
H        0.19943091      -1.24892964       0.49348917
12
Frame=9 idx=011847 GeodesicLength=0.5876423148363185 rxn_smarts="[C:1]([N:2]([C:3]([C:4]#[N:5])([C:6]#[N:7])[H:12])[H:11])([H:8])([H:9])[H:10]>>[C:1]([N+:2]([C-:3]([C:4]#[N:5])[C:6]#[N:7])([H:11])[H:12])([H:8])([H:9])[H:10]"
C       -1.61299738       0.18771873       0.22026068
N       -0.47046313      -0.51726186      -0.36180741
C        0.91910385      -0.16541761       0.01701633
C        2.02991547      -0.72519116      -0.67168559
N        2.88177121      -1.22124741      -1.26742459
C        1.10991722       1.09844756       0.64855060
N        1.17462346       2.09340202       1.22560983
H       -1.54384261       0.14191349       1.30574519
H       -2.53378500      -0.29914902      -0.09807225
H       -1.61767019       1.23170081      -0.10058326
H       -0.52352718      -0.56324080      -1.37098895
H        0.18695428      -1.26167477       0.45337941
12
Frame=10 idx=011847 GeodesicLength=0.6520631366303636 rxn_smarts="[C:1]([N:2]([C:3]([C:4]#[N:5])([C:6]#[N:7])[H:12])[H:11])([H:8])([H:9])[H:10]>>[C:1]([N+:2]([C-:3]([C:4]#[N:5])[C:6]#[N:7])([H:11])[H:12])([H:8])([H:9])[H:10]"
C       -1.61385575       0.17006690       0.23992282
N       -0.47053706      -0.49245316      -0.39097559
C        0.91228019      -0.15968412       0.00595540
C        2.03422374      -0.74788616      -0.64170193
N        2.90098557      -1.27194376      -1.19000294
C        1.11113191       1.12109101       0.60431883
N        1.17251617       2.12933445       1.15823349
H       -1.53340188       0.06449639       1.32056602
H       -2.53393036      -0.30414121      -0.09885933
H       -1.62794438       1.23082444      -0.01964757
H       -0.52641748      -0.46502687      -1.40087966
H        0.17494933      -1.27467791       0.41307046
12
Frame=11 idx=011847 GeodesicLength=0.7167915378149643 rxn_smarts="[C:1]([N:2]([C:3]([C:4]#[N:5])([C:6]#[N:7])[H:12])[H:11])([H:8])([H:9])[H:10]>>[C:1]([N+:2]([C-:3]([C:4]#[N:5])[C:6]#[N:7])([H:11])[H:12])([H:8])([H:9])[H:10]"
C       -1.61362248       0.15191442       0.25809862
N       -0.47083465      -0.46755795      -0.41850817
C        0.90521745      -0.15411994      -0.00411973
C        2.03644641      -0.76836236      -0.61238060
N        2.91603118      -1.31921235      -1.11186731
C        1.11266815       1.14271257       0.56067686
N        1.17145653       2.16455121       1.08947529
H       -1.52239430      -0.01305251       1.33056222
H       -2.53388714      -0.30678595      -0.10092850
H       -1.63442137       1.22591970       0.06111005
H       -0.52978310      -0.36794007      -1.42391987
H        0.16312332      -1.28806676       0.37180113
12
Frame=12 idx=011847 GeodesicLength=0.7823601921496234 rxn_smarts="[C:1]([N:2]([C:3]([C:4]#[N:5])([C:6]#[N:7])[H:12])[H:11])([H:8])([H:9])[H:10]>>[C:1]([N+:2]([C-:3]([C:4]#[N:5])[C:6]#[N:7])([H:11])[H:12])([H:8])([H:9])[H:10]"
C       -1.61238192       0.13321152       0.27543367
N       -0.47182626      -0.44211690      -0.44509789
C        0.89759193      -0.14887293      -0.01417492
C        2.03607964      -0.78714373      -0.58521890
N        2.92951687      -1.36284917      -1.02896550
C        1.11470647       1.16243225       0.51805106
N        1.17151253       2.19951381       1.01655866
H       -1.51080755      -0.09201433       1.33608554
H       -2.53395203      -0.30644973      -0.10344168
H       -1.63716567       1.21704092       0.14366279
H       -0.53435335      -0.27075704      -1.44082083
H        0.15107933      -1.30199467       0.32792801
12
Frame=13 idx=011847 GeodesicLength=0.8483462338849614 rxn_smarts="[C:1]([N:2]([C:3]([C:4]#[N:5])([C:6]#[N:7])[H:12])[H:11])([H:8])([H:9])[H:10]>>[C:1]([N+:2]([C-:3]([C:4]#[N:5])[C:6]#[N:7])([H:11])[H:12])([H:8])([H:9])[H:10]"
C       -1.61020445       0.11391474       0.29132928
N       -0.47275511      -0.41635885      -0.47019736
C        0.88981891      -0.14300630      -0.02345458
C        2.03486895      -0.80360131      -0.55713356
N        2.93739981      -1.40415896      -0.94638557
C        1.11682311       1.18163442       0.47675710
N        1.17284187       2.23425804       0.94175095
H       -1.49913862      -0.17181669       1.33649902
H       -2.53383056      -0.30358363      -0.10705969
H       -1.63600777       1.20375319       0.22626206
H       -0.53946760      -0.17563889      -1.45144605
H        0.13965147      -1.31539577       0.28307837
12
Frame=14 idx=011847 GeodesicLength=0.915066127590733 rxn_smarts="[C:1]([N:2]([C:3]([C:4]#[N:5])([C:6]#[N:7])[H:12])[H:11])([H:8])([H:9])[H:10]>>[C:1]([N+:2]([C-:3]([C:4]#[N:5])[C:6]#[N:7])([H:11])[H:12])([H:8])([H:9])[H:10]"
C       -1.60717851       0.09416859       0.30649693
N       -0.47452497      -0.38997764      -0.49452156
C        0.88147399      -0.13696033      -0.03360272
C        2.03146184      -0.81861203      -0.53155309
N        2.94381228      -1.44147411      -0.85770184
C        1.11930151       1.19939237       0.43623319
N        1.17618255       2.26793736       0.86326876
H       -1.48727706      -0.25310724       1.33201325
H       -2.53404042      -0.29736766      -0.11019061
H       -1.63108879       1.18596852       0.31063270
H       -0.54645307      -0.08147569      -1.45649604
H        0.12833066      -1.32849214       0.23542102
12
Frame=15 idx=011847 GeodesicLength=0.9821593783389327 rxn_smarts="[C:1]([N:2]([C:3]([C:4]#[N:5])([C:6]#[N:7])[H:12])[H:11])([H:8])([H:9])[H:10]>>[C:1]([N+:2]([C-:3]([C:4]#[N:5])[C:6]#[N:7])([H:11])[H:12])([H:8])([H:9])[H:10]"
C       -1.60348326       0.07386719       0.32030098
N       -0.47636420      -0.36339446      -0.51734299
C        0.87292313      -0.12999768      -0.04328648
C        2.02750375      -0.83157929      -0.50427199
N        2.94485857      -1.47569850      -0.76962116
C        1.12152274       1.21698144       0.39714479
N        1.18210266       2.30095879       0.78281457
H       -1.47602096      -0.33504544       1.32207048
H       -2.53431156      -0.28835008      -0.11357922
H       -1.62226591       1.16323168       0.39472707
H       -0.55422178       0.00949820      -1.45605137
H        0.11775683      -1.34047184       0.18709533
12
Frame=16 idx=011847 GeodesicLength=1.049693863258986 rxn_smarts="[C:1]([N:2]([C:3]([C:4]#[N:5])([C:6]#[N:7])[H:12])[H:11])([H:8])([H:9])[H:10]>>[C:1]([N+:2]([C-:3]([C:4]#[N:5])[C:6]#[N:7])([H:11])[H:12])([H:8])([H:9])[H:10]"
C       -1.59915131       0.05324606       0.33306759
N       -0.47869593      -0.33644108      -0.53900063
C        0.86402092      -0.12240176      -0.05328590
C        2.02229718      -0.84340561      -0.47637878
N        2.94269904      -1.50555874      -0.67988165
C        1.12374490       1.23401562       0.35907953
N        1.19087316       2.33237717       0.70050973
H       -1.46514324      -0.41700740       1.30684906
H       -2.53479779      -0.27656232      -0.11592136
H       -1.60994550       1.13555839       0.47835678
H       -0.56348803       0.09755604      -1.45076302
H        0.10758660      -1.35137636       0.13736865
