14
Frame=0 idx=005375 GeodesicLength=0.0 rxn_smarts="[C:1]([C:2]#[C:3][C:4]([C:5]([O:6][H:14])([H:12])[H:13])([H:10])[H:11])([H:7])([H:8])[H:9]>>[C:1]([C:2](=[C:3]=[C:4]([H:10])[H:11])[H:14])([H:7])([H:8])[H:9].[C:5](=[O:6])([H:12])[H:13]"
C        2.42707381       0.52779287      -0.08878964
C        1.00225597       0.13149887      -0.11235997
C        0.13902445      -0.63674065      -0.59719770
C       -1.14110583      -1.07886935      -0.70793022
C       -1.90796251       0.22502039       0.65056355
O       -1.05500453       1.03155553       1.13889845
H        2.82879512       0.43506590       0.92100017
H        3.02148065      -0.09105839      -0.75950314
H        2.53357920       1.57142007      -0.38765453
H       -1.68497418      -0.83653255      -1.61509773
H       -1.38811819      -2.04359918      -0.27746103
H       -2.63858938       0.61871587      -0.06549284
H       -2.28422111      -0.57906295       1.29408956
H        0.14776658       0.72479360       0.60693508
14
Frame=1 idx=005375 GeodesicLength=0.06563065289274342 rxn_smarts="[C:1]([C:2]#[C:3][C:4]([C:5]([O:6][H:14])([H:12])[H:13])([H:10])[H:11])([H:7])([H:8])[H:9]>>[C:1]([C:2](=[C:3]=[C:4]([H:10])[H:11])[H:14])([H:7])([H:8])[H:9].[C:5](=[O:6])([H:12])[H:13]"
C        2.43287557       0.52091418      -0.08928883
C        1.00371034       0.13958399      -0.11093114
C        0.14430963      -0.63208032      -0.59804208
C       -1.13826860      -1.07089562      -0.71547280
C       -1.91817600       0.21939437       0.65767769
O       -1.07537682       1.04579784       1.13536103
H        2.82827032       0.45045186       0.92487975
H        3.02568500      -0.12163376      -0.73896945
H        2.55347859       1.55479101      -0.41570163
H       -1.67410870      -0.82348518      -1.62635206
H       -1.38215329      -2.04413382      -0.30208826
H       -2.67154790       0.60046338      -0.04145756
H       -2.26596427      -0.59036793       1.31065580
H        0.13726612       0.75119999       0.60972953
14
Frame=2 idx=005375 GeodesicLength=0.13127860805856667 rxn_smarts="[C:1]([C:2]#[C:3][C:4]([C:5]([O:6][H:14])([H:12])[H:13])([H:10])[H:11])([H:7])([H:8])[H:9]>>[C:1]([C:2](=[C:3]=[C:4]([H:10])[H:11])[H:14])([H:7])([H:8])[H:9].[C:5](=[O:6])([H:12])[H:13]"
C        2.43853665       0.51390817      -0.08961640
C        1.00510492       0.14790228      -0.11013810
C        0.14955015      -0.62731732      -0.59932430
C       -1.13549240      -1.06284158      -0.72306181
C       -1.92820420       0.21364731       0.66484637
O       -1.09603619       1.06004319       1.13134433
H        2.82755717       0.46566090       0.92843376
H        3.02939361      -0.15179742      -0.71764067
H        2.57354786       1.53719199      -0.44304048
H       -1.66354577      -0.81027754      -1.63739310
H       -1.37605097      -2.04426403      -0.32675194
H       -2.70409445       0.58104433      -0.01685038
H       -2.24670236      -0.60107873       1.32722457
H        0.12643597       0.77817844       0.61196816
14
Frame=3 idx=005375 GeodesicLength=0.19641086246436576 rxn_smarts="[C:1]([C:2]#[C:3][C:4]([C:5]([O:6][H:14])([H:12])[H:13])([H:10])[H:11])([H:7])([H:8])[H:9]>>[C:1]([C:2](=[C:3]=[C:4]([H:10])[H:11])[H:14])([H:7])([H:8])[H:9].[C:5](=[O:6])([H:12])[H:13]"
C        2.44390347       0.50747727      -0.09056487
C        1.00678681       0.15510578      -0.10853448
C        0.15511807      -0.62391449      -0.59943481
C       -1.13255139      -1.05541659      -0.72991754
C       -1.93830533       0.20869952       0.67108696
O       -1.11667336       1.07343792       1.12778635
H        2.82868467       0.47995362       0.92992827
H        3.03207080      -0.17872028      -0.69881563
H        2.59145330       1.52017521      -0.46868813
H       -1.65200385      -0.79811826      -1.64816581
H       -1.37059042      -2.04422089      -0.35007559
H       -2.73410764       0.56303146       0.00566849
H       -2.22993850      -0.60952283       1.34202426
H        0.11615339       0.80203254       0.61770253
14
Frame=4 idx=005375 GeodesicLength=0.2613421812638841 rxn_smarts="[C:1]([C:2]#[C:3][C:4]([C:5]([O:6][H:14])([H:12])[H:13])([H:10])[H:11])([H:7])([H:8])[H:9]>>[C:1]([C:2](=[C:3]=[C:4]([H:10])[H:11])[H:14])([H:7])([H:8])[H:9].[C:5](=[O:6])([H:12])[H:13]"
C        2.44914207       0.50133525      -0.09190332
C        1.00865129       0.16177682      -0.10670024
C        0.16088117      -0.62124566      -0.59891696
C       -1.12948719      -1.04835389      -0.73628959
C       -1.94852197       0.20418188       0.67676606
O       -1.13745633       1.08628069       1.12439425
H        2.83086292       0.49341716       0.93008706
H        3.03419450      -0.20357509      -0.68150599
H        2.60818697       1.50337864      -0.49308983
H       -1.63989098      -0.78665080      -1.65867651
H       -1.36537178      -2.04397332      -0.37252644
H       -2.76261014       0.54563705       0.02699409
H       -2.21468159      -0.61645117       1.35581011
H        0.10610107       0.82424246       0.62555731
14
Frame=5 idx=005375 GeodesicLength=0.3263210859376479 rxn_smarts="[C:1]([C:2]#[C:3][C:4]([C:5]([O:6][H:14])([H:12])[H:13])([H:10])[H:11])([H:7])([H:8])[H:9]>>[C:1]([C:2](=[C:3]=[C:4]([H:10])[H:11])[H:14])([H:7])([H:8])[H:9].[C:5](=[O:6])([H:12])[H:13]"
C        2.45430112       0.49540669      -0.09356970
C        1.01067559       0.16812815      -0.10481151
C        0.16677246      -0.61904268      -0.59804287
C       -1.12633050      -1.04155068      -0.74230774
C       -1.95886399       0.19998305       0.68199274
O       -1.15839714       1.09875308       1.12108848
H        2.83386963       0.50619883       0.92927075
H        3.03592525      -0.22693166      -0.66534367
H        2.62404181       1.48671890      -0.51659544
H       -1.62738860      -0.77577482      -1.66897219
H       -1.36022696      -2.04353342      -0.39428861
H       -2.79000593       0.52860933       0.04737324
H       -2.20061382      -0.62218954       1.36884758
H        0.09624108       0.84522477       0.63535894
14
Frame=6 idx=005375 GeodesicLength=0.39124547279051614 rxn_smarts="[C:1]([C:2]#[C:3][C:4]([C:5]([O:6][H:14])([H:12])[H:13])([H:10])[H:11])([H:7])([H:8])[H:9]>>[C:1]([C:2](=[C:3]=[C:4]([H:10])[H:11])[H:14])([H:7])([H:8])[H:9].[C:5](=[O:6])([H:12])[H:13]"
C        2.45939738       0.48924472      -0.09498831
C        1.01264589       0.17476356      -0.10364407
C        0.17258941      -0.61659633      -0.59774380
C       -1.12324674      -1.03451947      -0.74854460
C       -1.96902145       0.19548457       0.68747415
O       -1.17966072       1.11123578       1.11726171
H        2.83638520       0.51911797       0.92849767
H        3.03747118      -0.25051108      -0.64792238
H        2.64034288       1.46899365      -0.53989476
H       -1.61523915      -0.76443269      -1.67914626
H       -1.35489667      -2.04271159      -0.41648137
H       -2.81736557       0.51028277       0.06881118
H       -2.18524722      -0.62766949       1.38219792
H        0.08584556       0.86731761       0.64412291
14
Frame=7 idx=005375 GeodesicLength=0.45607853291655187 rxn_smarts="[C:1]([C:2]#[C:3][C:4]([C:5]([O:6][H:14])([H:12])[H:13])([H:10])[H:11])([H:7])([H:8])[H:9]>>[C:1]([C:2](=[C:3]=[C:4]([H:10])[H:11])[H:14])([H:7])([H:8])[H:9].[C:5](=[O:6])([H:12])[H:13]"
C        2.46442379       0.48326404      -0.09669525
C        1.01477237       0.18107481      -0.10247432
C        0.17853732      -0.61461109      -0.59712299
C       -1.12006720      -1.02772420      -0.75446290
C       -1.97927468       0.19124815       0.69257540
O       -1.20106547       1.12329565       1.11351405
H        2.83958451       0.53142474       0.92683574
H        3.03870817      -0.27271655      -0.63148681
H        2.65586191       1.45136841      -0.56236654
H       -1.60271624      -0.75361292      -1.68911317
H       -1.34963212      -2.04171327      -0.43807829
H       -2.84367315       0.49231861       0.08949662
H       -2.17097432      -0.63203512       1.39488692
H        0.07551509       0.88841873       0.65449155
14
Frame=8 idx=005375 GeodesicLength=0.520870059929506 rxn_smarts="[C:1]([C:2]#[C:3][C:4]([C:5]([O:6][H:14])([H:12])[H:13])([H:10])[H:11])([H:7])([H:8])[H:9]>>[C:1]([C:2](=[C:3]=[C:4]([H:10])[H:11])[H:14])([H:7])([H:8])[H:9].[C:5](=[O:6])([H:12])[H:13]"
C        2.46940229       0.47724725      -0.09842103
C        1.01696399       0.18734082      -0.10163654
C        0.18452350      -0.61276119      -0.59659888
C       -1.11688300      -1.02088748      -0.76038297
C       -1.98948581       0.18693991       0.69766400
O       -1.22271156       1.13511310       1.10958654
H        2.84284589       0.54373843       0.92478198
H        3.03975347      -0.29451288      -0.61471219
H        2.67125318       1.43316042      -0.58456470
H       -1.59014798      -0.74267526      -1.69895890
H       -1.34436940      -2.04042061      -0.45974527
H       -2.86948068       0.47385818       0.11044585
H       -2.15656876      -0.63580273       1.40743866
H        0.06490488       0.90966205       0.66510344
14
Frame=9 idx=005375 GeodesicLength=0.5856618041137036 rxn_smarts="[C:1]([C:2]#[C:3][C:4]([C:5]([O:6][H:14])([H:12])[H:13])([H:10])[H:11])([H:7])([H:8])[H:9]>>[C:1]([C:2](=[C:3]=[C:4]([H:10])[H:11])[H:14])([H:7])([H:8])[H:9].[C:5](=[O:6])([H:12])[H:13]"
C        2.47432266       0.47088717      -0.09975763
C        1.01904953       0.19408163      -0.10179880
C        0.19037823      -0.61046318      -0.59694492
C       -1.11384072      -1.01365054      -0.76672789
C       -1.99940233       0.18210871       0.70324245
O       -1.24475124       1.14690337       1.10512717
H        2.84523149       0.55669774       0.92300237
H        3.04062814      -0.31709394      -0.59576289
H        2.68752398       1.41337520      -0.60694589
H       -1.57816014      -0.73089160      -1.70875899
H       -1.33891404      -2.03864683      -0.48225226
H       -2.89535969       0.45365062       0.13308996
H       -2.14023869      -0.63956797       1.42048775
H        0.05353281       0.93260962       0.67399957
14
Frame=10 idx=005375 GeodesicLength=0.650542227326505 rxn_smarts="[C:1]([C:2]#[C:3][C:4]([C:5]([O:6][H:14])([H:12])[H:13])([H:10])[H:11])([H:7])([H:8])[H:9]>>[C:1]([C:2](=[C:3]=[C:4]([H:10])[H:11])[H:14])([H:7])([H:8])[H:9].[C:5](=[O:6])([H:12])[H:13]"
C        2.47918681       0.46440544      -0.10098579
C        1.02116540       0.20092451      -0.10250257
C        0.19622073      -0.60816547      -0.59760400
C       -1.11086442      -1.00629647      -0.77321530
C       -2.00916707       0.17705135       0.70896465
O       -1.26707148       1.15848757       1.10043908
H        2.84743543       0.56988862       0.92102969
H        3.04124250      -0.33960765      -0.57592672
H        2.70397022       1.39270572      -0.62915137
H       -1.56634837      -0.71878577      -1.71850528
H       -1.33347791      -2.03655690      -0.50507444
H       -2.92077231       0.43257781       0.15642219
H       -2.12324501      -0.64289331       1.43353703
H        0.04172546       0.95626455       0.68257284
14
Frame=11 idx=005375 GeodesicLength=0.7151527773679589 rxn_smarts="[C:1]([C:2]#[C:3][C:4]([C:5]([O:6][H:14])([H:12])[H:13])([H:10])[H:11])([H:7])([H:8])[H:9]>>[C:1]([C:2](=[C:3]=[C:4]([H:10])[H:11])[H:14])([H:7])([H:8])[H:9].[C:5](=[O:6])([H:12])[H:13]"
C        2.48392233       0.45753692      -0.10174077
C        1.02310991       0.20836137      -0.10452365
C        0.20188858      -0.60524415      -0.59945990
C       -1.10804470      -0.99844686      -0.78018745
C       -2.01850853       0.17141297       0.71524647
O       -1.28987801       1.16999317       1.09505812
H        2.84849654       0.58375447       0.91924671
H        3.04150314      -0.36283689      -0.55345676
H        2.72152316       1.37007870      -0.65132106
H       -1.55530242      -0.70576605      -1.72813957
H       -1.32774595      -2.03381772      -0.52878737
H       -2.94605870       0.40945200       0.18181659
H       -2.10390470      -0.64603037       1.44707603
H        0.02899935       0.98155244       0.68917262
14
Frame=12 idx=005375 GeodesicLength=0.7800776762103094 rxn_smarts="[C:1]([C:2]#[C:3][C:4]([C:5]([O:6][H:14])([H:12])[H:13])([H:10])[H:11])([H:7])([H:8])[H:9]>>[C:1]([C:2](=[C:3]=[C:4]([H:10])[H:11])[H:14])([H:7])([H:8])[H:9].[C:5](=[O:6])([H:12])[H:13]"
C        2.48858979       0.45044518      -0.10219768
C        1.02504060       0.21613086      -0.10738194
C        0.20745980      -0.60208580      -0.60203112
C       -1.10540842      -0.99037955      -0.78753117
C       -2.02753782       0.16535227       0.72188939
O       -1.31303321       1.18139291       1.08936550
H        2.84909466       0.59816319       0.91749481
H        3.04133960      -0.38639521      -0.52927858
H        2.73968280       1.34608021      -0.67340536
H       -1.54479750      -0.69216294      -1.73786457
H       -1.32204922      -2.03074595      -0.55314296
H       -2.97088153       0.38489550       0.20847010
H       -2.08315105      -0.64887682       1.46084186
H        0.01565151       1.00818617       0.69477171
14
Frame=13 idx=005375 GeodesicLength=0.8446832602418455 rxn_smarts="[C:1]([C:2]#[C:3][C:4]([C:5]([O:6][H:14])([H:12])[H:13])([H:10])[H:11])([H:7])([H:8])[H:9]>>[C:1]([C:2](=[C:3]=[C:4]([H:10])[H:11])[H:14])([H:7])([H:8])[H:9].[C:5](=[O:6])([H:12])[H:13]"
C        2.49306891       0.44303203      -0.10228248
C        1.02683561       0.22436784      -0.11154273
C        0.21293827      -0.59850295      -0.60556311
C       -1.10285489      -0.98197104      -0.79514299
C       -2.03611441       0.15879023       0.72897651
O       -1.33666388       1.19233287       1.08331057
H        2.84878052       0.61280702       0.91568594
H        3.04057786      -0.41009622      -0.50320332
H        2.75871845       1.32041278      -0.69488799
H       -1.53488249      -0.67800509      -1.74735108
H       -1.31608813      -2.02704907      -0.57801811
H       -2.99494825       0.35882155       0.23683301
H       -2.06072660      -0.65124582       1.47463451
H        0.00135905       1.03630587       0.69855126
14
Frame=14 idx=005375 GeodesicLength=0.9093688118029216 rxn_smarts="[C:1]([C:2]#[C:3][C:4]([C:5]([O:6][H:14])([H:12])[H:13])([H:10])[H:11])([H:7])([H:8])[H:9]>>[C:1]([C:2](=[C:3]=[C:4]([H:10])[H:11])[H:14])([H:7])([H:8])[H:9].[C:5](=[O:6])([H:12])[H:13]"
C        2.49743340       0.43546793      -0.10216776
C        1.02865433       0.23285861      -0.11651649
C        0.21836051      -0.59467129      -0.60982734
C       -1.10042392      -0.97333956      -0.80305399
C       -2.04435945       0.15187888       0.73630476
O       -1.36065198       1.20296771       1.07704153
H        2.84813392       0.62805498       0.91353316
H        3.03923312      -0.43377974      -0.47546943
H        2.77816553       1.29324566      -0.71621311
H       -1.52542477      -0.66340096      -1.75686073
H       -1.31011531      -2.02290280      -0.60333816
H       -3.01818046       0.33154799       0.26621422
H       -2.03728632      -0.65305478       1.48839679
H       -0.01353861       1.06512737       0.70195655
14
Frame=15 idx=005375 GeodesicLength=0.9740600071861689 rxn_smarts="[C:1]([C:2]#[C:3][C:4]([C:5]([O:6][H:14])([H:12])[H:13])([H:10])[H:11])([H:7])([H:8])[H:9]>>[C:1]([C:2](=[C:3]=[C:4]([H:10])[H:11])[H:14])([H:7])([H:8])[H:9].[C:5](=[O:6])([H:12])[H:13]"
C        2.50158380       0.42758858      -0.10157875
C        1.03035212       0.24202323      -0.12306941
C        0.22361189      -0.59020917      -0.61548345
C       -1.09820981      -0.96437395      -0.81143530
C       -2.05198691       0.14439690       0.74415905
O       -1.38505606       1.21327861       1.07041423
H        2.84647465       0.64378494       0.91141826
H        3.03700165      -0.45775129      -0.44529657
H        2.79875811       1.26412334      -0.73691332
H       -1.51694923      -0.64824117      -1.76635323
H       -1.30394301      -2.01822562      -0.62930170
H       -3.04047236       0.30247771       0.29749775
H       -2.01179560      -0.65438989       1.50230210
H       -0.02936924       1.09551778       0.70364036
14
Frame=16 idx=005375 GeodesicLength=1.0387160635162893 rxn_smarts="[C:1]([C:2]#[C:3][C:4]([C:5]([O:6][H:14])([H:12])[H:13])([H:10])[H:11])([H:7])([H:8])[H:9]>>[C:1]([C:2](=[C:3]=[C:4]([H:10])[H:11])[H:14])([H:7])([H:8])[H:9].[C:5](=[O:6])([H:12])[H:13]"
C        2.50553842       0.41956568      -0.10076233
C        1.03206629       0.25147605      -0.13074892
C        0.22881471      -0.58551219      -0.62201301
C       -1.09610689      -0.95528370      -0.82003256
C       -2.05914807       0.13659923       0.75224405
O       -1.40979382       1.22314140       1.06361101
H        2.84437888       0.65964239       0.90895450
H        3.03392137      -0.48132263      -0.41380558
H        2.81982934       1.23365793      -0.75676168
H       -1.50902554      -0.63292570      -1.77578479
H       -1.29771530      -2.01313510      -0.65548036
H       -3.06151409       0.27238621       0.32983330
H       -1.98534048      -0.65493084       1.51600925
H       -0.04590480       1.12664127       0.70473710
