15
Frame=0 idx=009047 GeodesicLength=0.0 rxn_smarts="[N:1]([C@@:2]([C:3]#[N:4])([C:5]1([H:11])[C:6]([H:12])([H:13])[C:7]1([H:14])[H:15])[H:10])([H:8])[H:9]>>[N:1]([C@@:2]1([H:10])/[C:3](=[N:4]/[H:15])[C@:7]2([H:14])[C@@:5]1([H:11])[C:6]2([H:12])[H:13])([H:8])[H:9]"
N        2.02981513       0.19819897      -0.45818425
C        0.92086415      -0.55415892       0.04983649
C        0.21817682      -0.06809680       1.31480976
N        0.15720619       0.42201633       2.41728182
C       -0.35145200      -0.58991304      -0.76842164
C       -1.13819062       0.67903129      -0.84732156
C       -1.41104022      -0.28653895       0.26434353
H        2.82978479       0.16917667       0.15718147
H        1.78196828       1.16349653      -0.62553105
H        1.25014912      -1.57767955       0.25479351
H       -0.47292513      -1.34024419      -1.53732196
H       -0.67191094       1.63299289      -0.61684959
H       -1.85065691       0.73599620      -1.66186601
H       -2.33837211      -0.84454674       0.32866794
H       -0.95341660       0.26026928       1.72858159
15
Frame=1 idx=009047 GeodesicLength=0.11400079681545397 rxn_smarts="[N:1]([C@@:2]([C:3]#[N:4])([C:5]1([H:11])[C:6]([H:12])([H:13])[C:7]1([H:14])[H:15])[H:10])([H:8])[H:9]>>[N:1]([C@@:2]1([H:10])/[C:3](=[N:4]/[H:15])[C@:7]2([H:14])[C@@:5]1([H:11])[C:6]2([H:12])[H:13])([H:8])[H:9]"
N        2.04239192       0.17886129      -0.46382231
C        0.92158046      -0.54903984       0.05410296
C        0.23335245      -0.03585550       1.31252259
N        0.15791199       0.44106968       2.41931284
C       -0.34646459      -0.57703202      -0.76997989
C       -1.14943787       0.68135904      -0.84113892
C       -1.41115008      -0.29610113       0.26357557
H        2.84008227       0.15084067       0.15461049
H        1.80773655       1.14382294      -0.65117992
H        1.23560292      -1.57336298       0.27804861
H       -0.45594211      -1.31284427      -1.55475209
H       -0.69830966       1.64027907      -0.60246054
H       -1.86375886       0.73651908      -1.65400530
H       -2.33079701      -0.86787678       0.31564236
H       -0.98279838       0.23936074       1.73952354
15
Frame=2 idx=009047 GeodesicLength=0.22776296457622125 rxn_smarts="[N:1]([C@@:2]([C:3]#[N:4])([C:5]1([H:11])[C:6]([H:12])([H:13])[C:7]1([H:14])[H:15])[H:10])([H:8])[H:9]>>[N:1]([C@@:2]1([H:10])/[C:3](=[N:4]/[H:15])[C@:7]2([H:14])[C@@:5]1([H:11])[C:6]2([H:12])[H:13])([H:8])[H:9]"
N        2.05489212       0.15903600      -0.46908812
C        0.92219498      -0.54341438       0.05846026
C        0.24850321      -0.00264408       1.30961837
N        0.15890675       0.45986515       2.42096304
C       -0.34148407      -0.56366637      -0.77156040
C       -1.16096809       0.68364625      -0.83503491
C       -1.41101652      -0.30554170       0.26272264
H        2.85017403       0.13212290       0.15256276
H        1.83385637       1.12309679      -0.67675580
H        1.22061646      -1.56802737       0.30159222
H       -0.43898654      -1.28471678      -1.57167911
H       -0.72562566       1.64745625      -0.58807750
H       -1.87718946       0.73664761      -1.64620124
H       -2.32260198      -0.89101437       0.30244692
H       -1.01127160       0.21715410       1.75003086
15
Frame=3 idx=009047 GeodesicLength=0.34132287620304935 rxn_smarts="[N:1]([C@@:2]([C:3]#[N:4])([C:5]1([H:11])[C:6]([H:12])([H:13])[C:7]1([H:14])[H:15])[H:10])([H:8])[H:9]>>[N:1]([C@@:2]1([H:10])/[C:3](=[N:4]/[H:15])[C@:7]2([H:14])[C@@:5]1([H:11])[C:6]2([H:12])[H:13])([H:8])[H:9]"
N        2.06727911       0.13872532      -0.47394821
C        0.92271124      -0.53729770       0.06288612
C        0.26366054       0.03136473       1.30609859
N        0.16028196       0.47860535       2.42206673
C       -0.33651779      -0.54981507      -0.77316294
C       -1.17277665       0.68587834      -0.82897883
C       -1.41062856      -0.31488401       0.26178196
H        2.86003152       0.11299204       0.15105541
H        1.86029439       1.10131374      -0.70211180
H        1.20522076      -1.56166856       0.32533115
H       -0.42208765      -1.25584890      -1.58811876
H       -0.75386850       1.65446727      -0.57359907
H       -1.89092747       0.73638525      -1.63843228
H       -2.31377052      -0.91397047       0.28906386
H       -1.03890237       0.19375267       1.76006808
15
Frame=4 idx=009047 GeodesicLength=0.45476345490408515 rxn_smarts="[N:1]([C@@:2]([C:3]#[N:4])([C:5]1([H:11])[C:6]([H:12])([H:13])[C:7]1([H:14])[H:15])[H:10])([H:8])[H:9]>>[N:1]([C@@:2]1([H:10])/[C:3](=[N:4]/[H:15])[C@:7]2([H:14])[C@@:5]1([H:11])[C:6]2([H:12])[H:13])([H:8])[H:9]"
N        2.07952377       0.11792868      -0.47838524
C        0.92314695      -0.53071434       0.06734717
C        0.27888559       0.06599973       1.30197011
N        0.16206134       0.49749486       2.42245827
C       -0.33157085      -0.53548294      -0.77478103
C       -1.18484890       0.68803981      -0.82293093
C       -1.40997131      -0.32415718       0.26076314
H        2.86963949       0.09341973       0.15008384
H        1.88701813       1.07846723      -0.72712857
H        1.18946813      -1.55429061       0.34916128
H       -0.40527139      -1.22621482      -1.60408933
H       -0.78302805       1.66124511      -0.55890716
H       -1.90494709       0.73574581      -1.63065887
H       -2.30428057      -0.93676237       0.27548072
H       -1.06582524       0.16928130       1.76961659
15
Frame=5 idx=009047 GeodesicLength=0.5679995538417195 rxn_smarts="[N:1]([C@@:2]([C:3]#[N:4])([C:5]1([H:11])[C:6]([H:12])([H:13])[C:7]1([H:14])[H:15])[H:10])([H:8])[H:9]>>[N:1]([C@@:2]1([H:10])/[C:3](=[N:4]/[H:15])[C@:7]2([H:14])[C@@:5]1([H:11])[C:6]2([H:12])[H:13])([H:8])[H:9]"
N        2.09159466       0.09664815      -0.48238869
C        0.92351942      -0.52368938       0.07180851
C        0.29423804       0.10109560       1.29723563
N        0.16424107       0.51674736       2.42201435
C       -0.32664803      -0.52067509      -0.77641134
C       -1.19716531       0.69012190      -0.81684980
C       -1.40903480      -0.33339432       0.25967163
H        2.87897937       0.07339433       0.14963874
H        1.91398994       1.05455350      -0.75171993
H        1.17341662      -1.54591012       0.37299497
H       -0.38856213      -1.19580413      -1.61962015
H       -0.81307891       1.66772310      -0.54388321
H       -1.91921201       0.73475971      -1.62284785
H       -2.29412747      -0.95940749       0.26168154
H       -1.09215044       0.14383686       1.77867558
15
Frame=6 idx=009047 GeodesicLength=0.6812306312616339 rxn_smarts="[N:1]([C@@:2]([C:3]#[N:4])([C:5]1([H:11])[C:6]([H:12])([H:13])[C:7]1([H:14])[H:15])[H:10])([H:8])[H:9]>>[N:1]([C@@:2]1([H:10])/[C:3](=[N:4]/[H:15])[C@:7]2([H:14])[C@@:5]1([H:11])[C:6]2([H:12])[H:13])([H:8])[H:9]"
N        2.10347423       0.07487675      -0.48597812
C        0.92386494      -0.51623709       0.07623877
C        0.30983104       0.13657804       1.29189111
N        0.16674163       0.53646426       2.42062571
C       -0.32174676      -0.50539170      -0.77803024
C       -1.20969671       0.69211541      -0.81068136
C       -1.40778722      -0.34261086       0.25852591
H        2.88806042       0.05289525       0.14966157
H        1.94118706       1.02954830      -0.77586445
H        1.15714671      -1.53652129       0.39676642
H       -0.37199057      -1.16458271      -1.63470774
H       -0.84397613       1.67382854      -0.52841946
H       -1.93368360       0.73344568      -1.61494796
H       -2.28327062      -0.98191024       0.24765255
H       -1.11815441       0.11750167       1.78726729
15
Frame=7 idx=009047 GeodesicLength=0.7946058372327571 rxn_smarts="[N:1]([C@@:2]([C:3]#[N:4])([C:5]1([H:11])[C:6]([H:12])([H:13])[C:7]1([H:14])[H:15])[H:10])([H:8])[H:9]>>[N:1]([C@@:2]1([H:10])/[C:3](=[N:4]/[H:15])[C@:7]2([H:14])[C@@:5]1([H:11])[C:6]2([H:12])[H:13])([H:8])[H:9]"
N        2.11514351       0.05260285      -0.48918218
C        0.92422090      -0.50836584       0.08061349
C        0.32578108       0.17241291       1.28592011
N        0.16948441       0.55674251       2.41821911
C       -0.31686080      -0.48963104      -0.77961517
C       -1.22240845       0.69401915      -0.80437543
C       -1.40620238      -0.35182977       0.25734700
H        2.89689332       0.03191259       0.15008457
H        1.96858371       1.00341557      -0.79957558
H        1.14073611      -1.52611541       0.42044713
H       -0.35557949      -1.13252906      -1.64935856
H       -0.87566814       1.67949577      -0.51240279
H       -1.94831583       0.73184132      -1.60691092
H       -2.27168102      -1.00427666       0.23337492
H       -1.14412692       0.09030512       1.79541430
15
Frame=8 idx=009047 GeodesicLength=0.9082047902849859 rxn_smarts="[N:1]([C@@:2]([C:3]#[N:4])([C:5]1([H:11])[C:6]([H:12])([H:13])[C:7]1([H:14])[H:15])[H:10])([H:8])[H:9]>>[N:1]([C@@:2]1([H:10])/[C:3](=[N:4]/[H:15])[C@:7]2([H:14])[C@@:5]1([H:11])[C:6]2([H:12])[H:13])([H:8])[H:9]"
N        2.12658363       0.02980942      -0.49203550
C        0.92462576      -0.50006786       0.08491625
C        0.34221313       0.20862093       1.27929466
N        0.17236420       0.57760004       2.41472925
C       -0.31198486      -0.47339000      -0.78113098
C       -1.23526300       0.69583230      -0.79787906
C       -1.40424684      -0.36105006       0.25616140
H        2.90548988       0.01044263       0.15083555
H        1.99615245       0.97610226      -0.82290503
H        1.12426951      -1.51465887       0.44402812
H       -0.33935242      -1.09961216      -1.66355084
H       -0.90809079       1.68465825      -0.49574461
H       -1.96306076       0.72997075      -1.59869082
H       -2.25931967      -1.02648992       0.21883293
H       -1.17038021       0.06223228       1.80313870
15
Frame=9 idx=009047 GeodesicLength=1.0215379333050036 rxn_smarts="[N:1]([C@@:2]([C:3]#[N:4])([C:5]1([H:11])[C:6]([H:12])([H:13])[C:7]1([H:14])[H:15])[H:10])([H:8])[H:9]>>[N:1]([C@@:2]1([H:10])/[C:3](=[N:4]/[H:15])[C@:7]2([H:14])[C@@:5]1([H:11])[C:6]2([H:12])[H:13])([H:8])[H:9]"
N        2.13778104       0.00647498      -0.49455773
C        0.92511043      -0.49134772       0.08914125
C        0.35911510       0.24524571       1.27201220
N        0.17528955       0.59912465       2.41011935
C       -0.30710846      -0.45665021      -0.78254967
C       -1.24822794       0.69756695      -0.79114271
C       -1.40191234      -0.37029779       0.25496974
H        2.91384520      -0.01146950       0.15189431
H        2.02387940       0.94752558      -0.84595735
H        1.10782460      -1.50218878       0.46748417
H       -0.32331967      -1.06579804      -1.67729149
H       -0.94119979       1.68924851      -0.47836050
H       -1.97786247       0.72789484      -1.59027816
H       -2.24618613      -1.04855015       0.20399929
H       -1.19702852       0.03322097       1.81051730
15
Frame=10 idx=009047 GeodesicLength=1.1350783663132153 rxn_smarts="[N:1]([C@@:2]([C:3]#[N:4])([C:5]1([H:11])[C:6]([H:12])([H:13])[C:7]1([H:14])[H:15])[H:10])([H:8])[H:9]>>[N:1]([C@@:2]1([H:10])/[C:3](=[N:4]/[H:15])[C@:7]2([H:14])[C@@:5]1([H:11])[C:6]2([H:12])[H:13])([H:8])[H:9]"
N        2.14869790      -0.01741558      -0.49679345
C        0.92571349      -0.48217753       0.09327912
C        0.37674106       0.28235093       1.26400486
N        0.17816311       0.62129312       2.40428702
C       -0.30223063      -0.43942713      -0.78383098
C       -1.26125428       0.69922046      -0.78412033
C       -1.39914729      -0.37953960       0.25381716
H        2.92197591      -0.03385624       0.15314205
H        2.05169705       0.91763123      -0.86875967
H        1.09146140      -1.48858263       0.49090230
H       -0.30749891      -1.03106429      -1.69053848
H       -0.97489092       1.69321173      -0.46016237
H       -1.99268057       0.72562591      -1.58159222
H       -2.23221067      -1.07040723       0.18886096
H       -1.22453665       0.00313684       1.81750403
15
Frame=11 idx=009047 GeodesicLength=1.2487795056014668 rxn_smarts="[N:1]([C@@:2]([C:3]#[N:4])([C:5]1([H:11])[C:6]([H:12])([H:13])[C:7]1([H:14])[H:15])[H:10])([H:8])[H:9]>>[N:1]([C@@:2]1([H:10])/[C:3](=[N:4]/[H:15])[C@:7]2([H:14])[C@@:5]1([H:11])[C:6]2([H:12])[H:13])([H:8])[H:9]"
N        2.15930149      -0.04188606      -0.49878197
C        0.92646963      -0.47254337       0.09733411
C        0.39522221       0.32000431       1.25523051
N        0.18088790       0.64417862       2.39714972
C       -0.29734487      -0.42172041      -0.78493604
C       -1.27429395       0.70080290      -0.77675282
C       -1.39592488      -0.38877892       0.25272856
H        2.92988649      -0.05671005       0.15449554
H        2.07954805       0.88635426      -0.89138383
H        1.07524842      -1.47379409       0.51434079
H       -0.29190029      -0.99538868      -1.70327420
H       -1.00906583       1.69648560      -0.44105594
H       -2.00745383       0.72321774      -1.57258441
H       -2.21736582      -1.09203918       0.17338888
H       -1.25321470      -0.02818267       1.82410111
15
Frame=12 idx=009047 GeodesicLength=1.3626505146397043 rxn_smarts="[N:1]([C@@:2]([C:3]#[N:4])([C:5]1([H:11])[C:6]([H:12])([H:13])[C:7]1([H:14])[H:15])[H:10])([H:8])[H:9]>>[N:1]([C@@:2]1([H:10])/[C:3](=[N:4]/[H:15])[C@:7]2([H:14])[C@@:5]1([H:11])[C:6]2([H:12])[H:13])([H:8])[H:9]"
N        2.16955638      -0.06696174      -0.50055745
C        0.92741570      -0.46241971       0.10132030
C        0.41470652       0.35830213       1.24564040
N        0.18336578       0.66785968       2.38857275
C       -0.29244376      -0.40353517      -0.78581488
C       -1.28729442       0.70232380      -0.76897334
C       -1.39221290      -0.39800841       0.25174246
H        2.93758206      -0.08002879       0.15587569
H        2.10736816       0.85360482      -0.91391807
H        1.05926019      -1.45774603       0.53787216
H       -0.27653381      -0.95874058      -1.71546159
H       -1.04360997       1.69900915      -0.42093537
H       -2.02212474       0.72072491      -1.56318907
H       -2.20161510      -1.11340699       0.15755516
H       -1.28342008      -0.06097707       1.83027084
15
Frame=13 idx=009047 GeodesicLength=1.4765834735908476 rxn_smarts="[N:1]([C@@:2]([C:3]#[N:4])([C:5]1([H:11])[C:6]([H:12])([H:13])[C:7]1([H:14])[H:15])[H:10])([H:8])[H:9]>>[N:1]([C@@:2]1([H:10])/[C:3](=[N:4]/[H:15])[C@:7]2([H:14])[C@@:5]1([H:11])[C:6]2([H:12])[H:13])([H:8])[H:9]"
N        2.17941627      -0.09266022      -0.50215478
C        0.92858872      -0.45178558       0.10525367
C        0.43533415       0.39732544       1.23518004
N        0.18549173       0.69244767       2.37842506
C       -0.28752043      -0.38488233      -0.78641837
C       -1.30019791       0.70379471      -0.76071518
C       -1.38798271      -0.40722828       0.25089277
H        2.94506540      -0.10380193       0.15719786
H        2.13507243       0.81930206      -0.93643122
H        1.04357268      -1.44036975       0.56157847
H       -0.26141143      -0.92110375      -1.72706570
H       -1.07838927       1.70071830      -0.39969132
H       -2.03662828       0.71821533      -1.55334619
H       -2.18493570      -1.13447058       0.14133173
H       -1.31547565      -0.09550108       1.83596316
15
Frame=14 idx=009047 GeodesicLength=1.5904806954942534 rxn_smarts="[N:1]([C@@:2]([C:3]#[N:4])([C:5]1([H:11])[C:6]([H:12])([H:13])[C:7]1([H:14])[H:15])[H:10])([H:8])[H:9]>>[N:1]([C@@:2]1([H:10])/[C:3](=[N:4]/[H:15])[C@:7]2([H:14])[C@@:5]1([H:11])[C:6]2([H:12])[H:13])([H:8])[H:9]"
N        2.18883082      -0.11901298      -0.50357919
C        0.93001973      -0.44061115       0.10915616
C        0.45723068       0.43715353       1.22379766
N        0.18721986       0.71812483       2.36650406
C       -0.28257279      -0.36577415      -0.78669475
C       -1.31295416       0.70522555      -0.75190247
C       -1.38321139      -0.41643889       0.25021489
H        2.95232828      -0.12802392       0.15841101
H        2.16256784       0.78333880      -0.95897431
H        1.02827081      -1.42157692       0.58553697
H       -0.24654601      -0.88243313      -1.73804812
H       -1.11326655       1.70154241      -0.37720785
H       -2.05091620       0.71575681      -1.54297541
H       -2.16730133      -1.15518096       0.12468394
H       -1.34969959      -0.13208985       1.84107741
15
Frame=15 idx=009047 GeodesicLength=1.7042062365538775 rxn_smarts="[N:1]([C@@:2]([C:3]#[N:4])([C:5]1([H:11])[C:6]([H:12])([H:13])[C:7]1([H:14])[H:15])[H:10])([H:8])[H:9]>>[N:1]([C@@:2]1([H:10])/[C:3](=[N:4]/[H:15])[C@:7]2([H:14])[C@@:5]1([H:11])[C:6]2([H:12])[H:13])([H:8])[H:9]"
N        2.19773964      -0.14604639      -0.50483329
C        0.93173998      -0.42886647       0.11304781
C        0.48052294       0.47785602       1.21142770
N        0.18850346       0.74511140       2.35261641
C       -0.27760157      -0.34622882      -0.78659321
C       -1.32551028       0.70662848      -0.74245495
C       -1.37787730      -0.42564610       0.24974596
H        2.95935813      -0.15268557       0.15946335
H        2.18974204       0.74560834      -0.98157780
H        1.01343955      -1.40127529       0.60983293
H       -0.23195502      -0.84269806      -1.74836740
H       -1.14808131       1.70141208      -0.35336481
H       -2.06494065       0.71342871      -1.53199764
H       -2.14869247      -1.17549015       0.10757488
H       -1.38638715      -0.17110818       1.84548005
15
Frame=16 idx=009047 GeodesicLength=1.8176364229938424 rxn_smarts="[N:1]([C@@:2]([C:3]#[N:4])([C:5]1([H:11])[C:6]([H:12])([H:13])[C:7]1([H:14])[H:15])[H:10])([H:8])[H:9]>>[N:1]([C@@:2]1([H:10])/[C:3](=[N:4]/[H:15])[C@:7]2([H:14])[C@@:5]1([H:11])[C:6]2([H:12])[H:13])([H:8])[H:9]"
N        2.20607506      -0.17378016      -0.50590084
C        0.93377623      -0.41651811       0.11695760
C        0.50532175       0.51949620       1.19799472
N        0.18933950       0.77368990       2.33653934
C       -0.27260965      -0.32627148      -0.78605906
C       -1.33781630       0.70801398      -0.73228659
C       -1.37196429      -0.43486034       0.24952502
H        2.96613884      -0.17778471       0.16032306
H        2.21647061       0.70598070      -1.00426766
H        0.99916218      -1.37935604       0.63456061
H       -0.21765286      -0.80185312      -1.75797913
H       -1.18266777       1.70025753      -0.32802672
H       -2.07866119       0.71131645      -1.52032352
H       -2.12909479      -1.19534464       0.08996112
H       -1.42581732      -0.21298615       1.84898205
