13
Frame=0 idx=003340 GeodesicLength=0.0 rxn_smarts="[C:1]1([H:7])([H:8])[C@@:2]2([H:9])[C@:3]1([H:10])[N:4]1[C:5]([H:11])([H:12])[C@@:6]21[H:13]>>[C:1]1([H:7])([H:8])[C:2]([H:9])=[C:6]([H:13])[N+:4]([C-:5]([H:11])[H:12])=[C:3]1[H:10]"
C       -1.22795296       0.75423199       0.00742497
C       -1.03253003      -0.73241358       0.15094591
C       -0.04062266       0.91369033      -0.88807169
N        0.93036312      -0.08790287      -0.82870493
C        1.52108049      -0.25022893       0.51177238
C        0.34591322      -1.10629261      -0.04046500
H       -1.19903481       1.35999014       0.94465444
H       -2.16890870       1.03209818      -0.48338457
H       -1.79224796      -1.42675253       0.48096012
H        0.25726318       1.84677630      -1.35501946
H        1.28061780       0.50765902       1.24980339
H        2.51452082      -0.68866782       0.56169987
H        0.61153844      -2.12218768      -0.31161545
13
Frame=1 idx=003340 GeodesicLength=0.06335677395497961 rxn_smarts="[C:1]1([H:7])([H:8])[C@@:2]2([H:9])[C@:3]1([H:10])[N:4]1[C:5]([H:11])([H:12])[C@@:6]21[H:13]>>[C:1]1([H:7])([H:8])[C:2]([H:9])=[C:6]([H:13])[N+:4]([C-:5]([H:11])[H:12])=[C:3]1[H:10]"
C       -1.22906650       0.75835709       0.01899063
C       -1.03729544      -0.72985609       0.13032033
C       -0.04948882       0.90131476      -0.88752808
N        0.93407415      -0.08812838      -0.81658806
C        1.53113296      -0.23976170       0.51617079
C        0.34237461      -1.10776738      -0.03074938
H       -1.18764483       1.34958000       0.96267570
H       -2.17051070       1.04633422      -0.46418268
H       -1.80810975      -1.42756391       0.42589155
H        0.23722124       1.82701713      -1.37503501
H        1.30551154       0.52842409       1.24762862
H        2.51740373      -0.69316962       0.56312277
H        0.61439781      -2.12478020      -0.29071718
13
Frame=2 idx=003340 GeodesicLength=0.1267022835991842 rxn_smarts="[C:1]1([H:7])([H:8])[C@@:2]2([H:9])[C@:3]1([H:10])[N:4]1[C:5]([H:11])([H:12])[C@@:6]21[H:13]>>[C:1]1([H:7])([H:8])[C:2]([H:9])=[C:6]([H:13])[N+:4]([C-:5]([H:11])[H:12])=[C:3]1[H:10]"
C       -1.23029191       0.76204464       0.03036133
C       -1.04189117      -0.72707767       0.11013855
C       -0.05813504       0.88933911      -0.88630049
N        0.93732545      -0.08833466      -0.80442973
C        1.54138808      -0.22933458       0.52021477
C        0.33837098      -1.10909946      -0.02081275
H       -1.17738176       1.33862251       0.98022375
H       -2.17190572       1.05963179      -0.44577276
H       -1.82296271      -1.42740588       0.37063324
H        0.21755462       1.80734839      -1.39361948
H        1.33143681       0.54951819       1.24445114
H        2.52005096      -0.69802445       0.56420803
H        0.61644141      -2.12722794      -0.26929559
13
Frame=3 idx=003340 GeodesicLength=0.19003086820256765 rxn_smarts="[C:1]1([H:7])([H:8])[C@@:2]2([H:9])[C@:3]1([H:10])[N:4]1[C:5]([H:11])([H:12])[C@@:6]21[H:13]>>[C:1]1([H:7])([H:8])[C:2]([H:9])=[C:6]([H:13])[N+:4]([C-:5]([H:11])[H:12])=[C:3]1[H:10]"
C       -1.23167187       0.76527904       0.04144195
C       -1.04633370      -0.72412160       0.09029133
C       -0.06653146       0.87780714      -0.88444566
N        0.94016414      -0.08849744      -0.79225885
C        1.55181460      -0.21897818       0.52390607
C        0.33389672      -1.11030192      -0.01077741
H       -1.16831045       1.32711383       0.99723974
H       -2.17315098       1.07196790      -0.42829286
H       -1.83665110      -1.42625810       0.31576798
H        0.19838333       1.78793736      -1.41065771
H        1.35830969       0.57082377       1.24026113
H        2.52240682      -0.70324804       0.56503323
H        0.61767427      -2.12952375      -0.24750895
13
Frame=4 idx=003340 GeodesicLength=0.2533730061513679 rxn_smarts="[C:1]1([H:7])([H:8])[C@@:2]2([H:9])[C@:3]1([H:10])[N:4]1[C:5]([H:11])([H:12])[C@@:6]21[H:13]>>[C:1]1([H:7])([H:8])[C:2]([H:9])=[C:6]([H:13])[N+:4]([C-:5]([H:11])[H:12])=[C:3]1[H:10]"
C       -1.23321317       0.76808216       0.05228534
C       -1.05061673      -0.72100294       0.07082477
C       -0.07467916       0.86672470      -0.88197374
N        0.94262063      -0.08863334      -0.78006135
C        1.56242329      -0.20868594       0.52725703
C        0.32896917      -1.11138964      -0.00063249
H       -1.16035858       1.31508615       1.01379458
H       -2.17429674       1.08341499      -0.41163255
H       -1.84923909      -1.42419341       0.26108150
H        0.17964625       1.76876258      -1.42632042
H        1.38613745       0.59233150       1.23501856
H        2.52447205      -0.70881023       0.56565876
H        0.61813462      -2.13168658      -0.22530000
13
Frame=5 idx=003340 GeodesicLength=0.31672840773476596 rxn_smarts="[C:1]1([H:7])([H:8])[C@@:2]2([H:9])[C@:3]1([H:10])[N:4]1[C:5]([H:11])([H:12])[C@@:6]21[H:13]>>[C:1]1([H:7])([H:8])[C:2]([H:9])=[C:6]([H:13])[N+:4]([C-:5]([H:11])[H:12])=[C:3]1[H:10]"
C       -1.23490985       0.77047967       0.06298359
C       -1.05472716      -0.71771852       0.05182658
C       -0.08259160       0.85607001      -0.87888251
N        0.94470237      -0.08878306      -0.76780662
C        1.57321973      -0.19843707       0.53025347
C        0.32360909      -1.11235912       0.00967858
H       -1.15345500       1.30257885       1.02999741
H       -2.17537028       1.09402758      -0.39563073
H       -1.86075534      -1.42124511       0.20616742
H        0.16126976       1.74976009      -1.44080020
H        1.41491201       0.61402146       1.22862324
H        2.52622877      -0.71468166       0.56612886
H        0.61786749      -2.13371312      -0.20253908
13
Frame=6 idx=003340 GeodesicLength=0.38009760767305806 rxn_smarts="[C:1]1([H:7])([H:8])[C@@:2]2([H:9])[C@:3]1([H:10])[N:4]1[C:5]([H:11])([H:12])[C@@:6]21[H:13]>>[C:1]1([H:7])([H:8])[C:2]([H:9])=[C:6]([H:13])[N+:4]([C-:5]([H:11])[H:12])=[C:3]1[H:10]"
C       -1.23679934       0.77246339       0.07344759
C       -1.05867737      -0.71430663       0.03318833
C       -0.09025466       0.84587577      -0.87523531
N        0.94645725      -0.08890739      -0.75551996
C        1.58417972      -0.18826072       0.53291324
C        0.31781676      -1.11322902       0.02003027
H       -1.14763312       1.28959485       1.04577674
H       -2.17642501       1.10380639      -0.38040692
H       -1.87108733      -1.41742752       0.15157936
H        0.14333984       1.73107002      -1.45400074
H        1.44457245       0.63578715       1.22109317
H        2.52763223      -0.72086930       0.56653512
H        0.61687858      -2.13559697      -0.17940089
13
Frame=7 idx=003340 GeodesicLength=0.44345963961511087 rxn_smarts="[C:1]1([H:7])([H:8])[C@@:2]2([H:9])[C@:3]1([H:10])[N:4]1[C:5]([H:11])([H:12])[C@@:6]21[H:13]>>[C:1]1([H:7])([H:8])[C:2]([H:9])=[C:6]([H:13])[N+:4]([C-:5]([H:11])[H:12])=[C:3]1[H:10]"
C       -1.23890332       0.77404008       0.08362589
C       -1.06245740      -0.71078226       0.01483035
C       -0.09765527       0.83615736      -0.87108288
N        0.94793780      -0.08898325      -0.74320416
C        1.59527432      -0.17817469       0.53524103
C        0.31161426      -1.11402171       0.03031535
H       -1.14291623       1.27615957       1.06108786
H       -2.17749306       1.11276015      -0.36601836
H       -1.88018910      -1.41275738       0.09775342
H        0.12592635       1.71279304      -1.46590168
H        1.47499826       0.65750522       1.21244237
H        2.52864675      -0.72735765       0.56695176
H        0.61521664      -2.13733846      -0.15604094
13
Frame=8 idx=003340 GeodesicLength=0.5067894645440004 rxn_smarts="[C:1]1([H:7])([H:8])[C@@:2]2([H:9])[C@:3]1([H:10])[N:4]1[C:5]([H:11])([H:12])[C@@:6]21[H:13]>>[C:1]1([H:7])([H:8])[C:2]([H:9])=[C:6]([H:13])[N+:4]([C-:5]([H:11])[H:12])=[C:3]1[H:10]"
C       -1.24123941       0.77521874       0.09347413
C       -1.06605750      -0.70715983      -0.00331934
C       -0.10477758       0.82692362      -0.86648727
N        0.94919596      -0.08898348      -0.73086393
C        1.60648159      -0.16819040       0.53725201
C        0.30502349      -1.11476025       0.04042904
H       -1.13930862       1.26230843       1.07589669
H       -2.17860719       1.12090345      -0.35251048
H       -1.88807249      -1.40729271       0.04509540
H        0.10909905       1.69502065      -1.47650803
H        1.50608615       0.67906251       1.20271162
H        2.52924924      -0.73411489       0.56745140
H        0.61292732      -2.13893585      -0.13262123
13
Frame=9 idx=003340 GeodesicLength=0.5700657862091003 rxn_smarts="[C:1]1([H:7])([H:8])[C@@:2]2([H:9])[C@:3]1([H:10])[N:4]1[C:5]([H:11])([H:12])[C@@:6]21[H:13]>>[C:1]1([H:7])([H:8])[C:2]([H:9])=[C:6]([H:13])[N+:4]([C-:5]([H:11])[H:12])=[C:3]1[H:10]"
C       -1.24382225       0.77601080       0.10296278
C       -1.06946292      -0.70344422      -0.02130481
C       -0.11162204       0.81816933      -0.86151027
N        0.95026826      -0.08889192      -0.71850023
C        1.61778783      -0.15831308       0.53895534
C        0.29806527      -1.11546351       0.05029827
H       -1.13679721       1.24807602       1.09018033
H       -2.17980316       1.12825695      -0.33990524
H       -1.89477836      -1.40111742      -0.00611156
H        0.09292521       1.67784156      -1.48581809
H        1.53776260       0.70037412       1.19190484
H        2.52942275      -0.74111123       0.56810644
H        0.61005402      -2.14038738      -0.10925780
13
Frame=10 idx=003340 GeodesicLength=0.6332762478741444 rxn_smarts="[C:1]1([H:7])([H:8])[C@@:2]2([H:9])[C@:3]1([H:10])[N:4]1[C:5]([H:11])([H:12])[C@@:6]21[H:13]>>[C:1]1([H:7])([H:8])[C:2]([H:9])=[C:6]([H:13])[N+:4]([C-:5]([H:11])[H:12])=[C:3]1[H:10]"
C       -1.24664675       0.77643369       0.11205080
C       -1.07265852      -0.69963849      -0.03916506
C       -0.11818410       0.80989869      -0.85618885
N        0.95119411      -0.08868072      -0.70610842
C        1.62919159      -0.14853944       0.54036521
C        0.29077717      -1.11615050       0.05983100
H       -1.13536329       1.23350705       1.10387850
H       -2.18107145       1.13484572      -0.32824539
H       -1.90040180      -1.39431836      -0.05554726
H        0.07741791       1.66131215      -1.49384849
H        1.56993070       0.72133145       1.18012427
H        2.52915683      -0.74830706       0.56894589
H        0.60665759      -2.14169418      -0.08609222
13
Frame=11 idx=003340 GeodesicLength=0.6964464863219035 rxn_smarts="[C:1]1([H:7])([H:8])[C@@:2]2([H:9])[C@:3]1([H:10])[N:4]1[C:5]([H:11])([H:12])[C@@:6]21[H:13]>>[C:1]1([H:7])([H:8])[C:2]([H:9])=[C:6]([H:13])[N+:4]([C-:5]([H:11])[H:12])=[C:3]1[H:10]"
C       -1.24972060       0.77649641       0.12080802
C       -1.07565331      -0.69574607      -0.05685718
C       -0.12450074       0.80205737      -0.85055601
N        0.95196282      -0.08838478      -0.69366941
C        1.64070046      -0.13885030       0.54148552
C        0.28315810      -1.11683131       0.06908581
H       -1.13492640       1.21860963       1.11708073
H       -2.18245872       1.14072693      -0.31739212
H       -1.90503173      -1.38698679      -0.10358658
H        0.06257619       1.64543633      -1.50066336
H        1.60269287       0.74198917       1.16721121
H        2.52845101      -0.75565185       0.57004302
H        0.60275005      -2.14286475      -0.06298963
13
Frame=12 idx=003340 GeodesicLength=0.7595520401039818 rxn_smarts="[C:1]1([H:7])([H:8])[C@@:2]2([H:9])[C@:3]1([H:10])[N:4]1[C:5]([H:11])([H:12])[C@@:6]21[H:13]>>[C:1]1([H:7])([H:8])[C:2]([H:9])=[C:6]([H:13])[N+:4]([C-:5]([H:11])[H:12])=[C:3]1[H:10]"
C       -1.25303530       0.77622501       0.12923264
C       -1.07841734      -0.69176143      -0.07436302
C       -0.13056931       0.79464235      -0.84463320
N        0.95260719      -0.08798837      -0.68116958
C        1.65232356      -0.12923690       0.54230965
C        0.27524205      -1.11752856       0.07801154
H       -1.13547195       1.20344677       1.12977550
H       -2.18396093       1.14592359      -0.30734728
H       -1.90874057      -1.37917381      -0.15007987
H        0.04839782       1.63021804      -1.50634150
H        1.63591799       0.76224833       1.15324894
H        2.52732024      -0.76310946       0.57142295
H        0.59838655      -2.14390556      -0.04006677
13
Frame=13 idx=003340 GeodesicLength=0.8226161143983802 rxn_smarts="[C:1]1([H:7])([H:8])[C@@:2]2([H:9])[C@:3]1([H:10])[N:4]1[C:5]([H:11])([H:12])[C@@:6]21[H:13]>>[C:1]1([H:7])([H:8])[C:2]([H:9])=[C:6]([H:13])[N+:4]([C-:5]([H:11])[H:12])=[C:3]1[H:10]"
C       -1.25659318       0.77562665       0.13736895
C       -1.08097407      -0.68770013      -0.09168287
C       -0.13641336       0.78762747      -0.83842876
N        0.95312777      -0.08750320      -0.66858709
C        1.66406901      -0.11967872       0.54286177
C        0.26703701      -1.11825440       0.08662388
H       -1.13693997       1.18799915       1.14202482
H       -2.18559227       1.15049819      -0.29801672
H       -1.91162103      -1.37095173      -0.19526735
H        0.03484263       1.61564591      -1.51094582
H        1.66972644       0.78216154       1.13812844
H        2.52574579      -0.77064514       0.57317033
H        0.59358524      -2.14482559      -0.01724957
13
Frame=14 idx=003340 GeodesicLength=0.885670591086432 rxn_smarts="[C:1]1([H:7])([H:8])[C@@:2]2([H:9])[C@:3]1([H:10])[N:4]1[C:5]([H:11])([H:12])[C@@:6]21[H:13]>>[C:1]1([H:7])([H:8])[C:2]([H:9])=[C:6]([H:13])[N+:4]([C-:5]([H:11])[H:12])=[C:3]1[H:10]"
C       -1.26039637       0.77471127       0.14527326
C       -1.08332780      -0.68355873      -0.10877915
C       -0.14205732       0.78098780      -0.83192345
N        0.95351824      -0.08695036      -0.65589038
C        1.67595860      -0.11016140       0.54313067
C        0.25855126      -1.11901693       0.09496791
H       -1.13929808       1.17226344       1.15388447
H       -2.18736877       1.15449251      -0.28930154
H       -1.91371557      -1.36232932      -0.23946667
H        0.02185650       1.60168377      -1.51454069
H        1.70417666       0.80173040       1.12173753
H        2.52373857      -0.77822162       0.57532415
H        0.58836408      -2.14563083       0.00558389
13
Frame=15 idx=003340 GeodesicLength=0.9487323021685778 rxn_smarts="[C:1]1([H:7])([H:8])[C@@:2]2([H:9])[C@:3]1([H:10])[N:4]1[C:5]([H:11])([H:12])[C@@:6]21[H:13]>>[C:1]1([H:7])([H:8])[C:2]([H:9])=[C:6]([H:13])[N+:4]([C-:5]([H:11])[H:12])=[C:3]1[H:10]"
C       -1.26443910       0.77347560       0.15299865
C       -1.08548619      -0.67934454      -0.12564016
C       -0.14752248       0.77470663      -0.82510127
N        0.95376487      -0.08634133      -0.64305237
C        1.68799314      -0.10066477       0.54312200
C        0.24978211      -1.11981899       0.10307391
H       -1.14249820       1.15620481       1.16542477
H       -2.18928541       1.15794071      -0.28111451
H       -1.91503646      -1.35332393      -0.28295357
H        0.00938912       1.58830313      -1.51717435
H        1.73936057       0.82099062       1.10391766
H        2.52125606      -0.78581764       0.57797200
H        0.58272198      -2.14631029       0.02852725
13
Frame=16 idx=003340 GeodesicLength=1.0117777301299848 rxn_smarts="[C:1]1([H:7])([H:8])[C@@:2]2([H:9])[C@:3]1([H:10])[N:4]1[C:5]([H:11])([H:12])[C@@:6]21[H:13]>>[C:1]1([H:7])([H:8])[C:2]([H:9])=[C:6]([H:13])[N+:4]([C-:5]([H:11])[H:12])=[C:3]1[H:10]"
C       -1.26872570       0.77193393       0.16051781
C       -1.08744109      -0.67505905      -0.14229649
C       -0.15280620       0.76877001      -0.81800027
N        0.95390104      -0.08565585      -0.63005587
C        1.70017377      -0.09118199       0.54284563
C        0.24075590      -1.12068853       0.11087383
H       -1.14654505       1.13985940       1.17661256
H       -2.19134939       1.16086291      -0.27347896
H       -1.91565437      -1.34397028      -0.32547756
H       -0.00252062       1.57553756      -1.51886995
H        1.77518771       0.83982585       1.08473477
H        2.51831902      -0.79336100       0.58115613
H        0.57670498      -2.14687297       0.05143836
