16
Frame=0 idx=005857 GeodesicLength=0.0 rxn_smarts="[C:1]([C@@:2]1([H:10])[C:3]([H:11])([H:12])[C:4]([H:13])([H:14])[C:5]([H:15])([H:16])[O:6]1)([H:7])([H:8])[H:9]>>[C:1](/[C:2](=[C:3](/[C:4]([C:5]([O:6][H:12])([H:15])[H:16])([H:13])[H:14])[H:11])[H:10])([H:7])([H:8])[H:9]"
C        2.22603179       0.22579452       0.01644014
C        0.76976578       0.41456985      -0.20235439
C       -0.04521140      -0.56344678      -0.81174521
C       -1.49937814      -0.21960298      -0.65986752
C       -1.57198230       0.14952424       0.88681431
O       -0.32008372      -0.09968203       1.45258103
H        2.48279849       0.47281146       1.04698354
H        2.77777780       0.91282057      -0.63100195
H        2.53888515      -0.79605709      -0.19659184
H        0.40322175       1.42685757      -0.05035215
H        0.35978831      -1.29025534      -1.50339770
H        0.03285361      -0.94169029       0.43691971
H       -2.14430220      -1.06322717      -0.90970790
H       -1.81648656       0.63217347      -1.26560302
H       -2.33606358      -0.46101488       1.37754878
H       -1.85761478       1.20042495       1.01333410
16
Frame=1 idx=005857 GeodesicLength=0.06465552150188762 rxn_smarts="[C:1]([C@@:2]1([H:10])[C:3]([H:11])([H:12])[C:4]([H:13])([H:14])[C:5]([H:15])([H:16])[O:6]1)([H:7])([H:8])[H:9]>>[C:1](/[C:2](=[C:3](/[C:4]([C:5]([O:6][H:12])([H:15])[H:16])([H:13])[H:14])[H:11])[H:10])([H:7])([H:8])[H:9]"
C        2.23158543       0.22679766       0.01342395
C        0.77283842       0.41439951      -0.19666549
C       -0.04382515      -0.56529753      -0.80283171
C       -1.49766213      -0.21261536      -0.65790997
C       -1.58257658       0.14419153       0.88718522
O       -0.32788564      -0.09174248       1.45725062
H        2.49816737       0.49641454       1.03586402
H        2.78068860       0.89494988      -0.65556513
H        2.54136797      -0.80043734      -0.17751067
H        0.41386575       1.43280416      -0.06700464
H        0.35539503      -1.28497846      -1.50514527
H        0.02942886      -0.95881358       0.45596078
H       -2.14834347      -1.04737232      -0.92194162
H       -1.80121146       0.64770789      -1.25844117
H       -2.33686153      -0.48478259       1.37016503
H       -1.88497149       1.18877449       1.02316603
16
Frame=2 idx=005857 GeodesicLength=0.1293025048733655 rxn_smarts="[C:1]([C@@:2]1([H:10])[C:3]([H:11])([H:12])[C:4]([H:13])([H:14])[C:5]([H:15])([H:16])[O:6]1)([H:7])([H:8])[H:9]>>[C:1](/[C:2](=[C:3](/[C:4]([C:5]([O:6][H:12])([H:15])[H:16])([H:13])[H:14])[H:11])[H:10])([H:7])([H:8])[H:9]"
C        2.23712044       0.22777559       0.01036211
C        0.77594769       0.41455452      -0.19096330
C       -0.04240952      -0.56694251      -0.79378828
C       -1.49587869      -0.20546034      -0.65588199
C       -1.59328027       0.13870028       0.88754009
O       -0.33582843      -0.08380138       1.46174784
H        2.51365281       0.52013669       1.02395811
H        2.78342098       0.87616210      -0.67994127
H        2.54378690      -0.80443638      -0.15793901
H        0.42485209       1.43867859      -0.08425451
H        0.35097541      -1.27942479      -1.50661286
H        0.02569443      -0.97588684       0.47533645
H       -2.15204952      -1.03112653      -0.93428914
H       -1.78595165       0.66335201      -1.25077338
H       -2.33725251      -0.50873367       1.36249974
H       -1.91280015       1.17645268       1.03299940
16
Frame=3 idx=005857 GeodesicLength=0.19393341685852247 rxn_smarts="[C:1]([C@@:2]1([H:10])[C:3]([H:11])([H:12])[C:4]([H:13])([H:14])[C:5]([H:15])([H:16])[O:6]1)([H:7])([H:8])[H:9]>>[C:1](/[C:2](=[C:3](/[C:4]([C:5]([O:6][H:12])([H:15])[H:16])([H:13])[H:14])[H:11])[H:10])([H:7])([H:8])[H:9]"
C        2.24263132       0.22873225       0.00725627
C        0.77909129       0.41504992      -0.18525516
C       -0.04096445      -0.56836405      -0.78462434
C       -1.49403074      -0.19813910      -0.65377503
C       -1.60408818       0.13304638       0.88787128
O       -0.34391421      -0.07587401       1.46607087
H        2.52925034       0.54393010       1.01124493
H        2.78596832       0.85646552      -0.70406747
H        2.54613829      -0.80801251      -0.13789549
H        0.43618869       1.44445822      -0.10212881
H        0.34653295      -1.27359057      -1.50779018
H        0.02164394      -0.99291032       0.49504246
H       -2.15541051      -1.01449341      -0.94672141
H       -1.77073362       0.67909749      -1.24257955
H       -2.33723837      -0.53283194       1.35453871
H       -1.94106508       1.16343605       1.04281293
16
Frame=4 idx=005857 GeodesicLength=0.25851624202986284 rxn_smarts="[C:1]([C@@:2]1([H:10])[C:3]([H:11])([H:12])[C:4]([H:13])([H:14])[C:5]([H:15])([H:16])[O:6]1)([H:7])([H:8])[H:9]>>[C:1](/[C:2](=[C:3](/[C:4]([C:5]([O:6][H:12])([H:15])[H:16])([H:13])[H:14])[H:11])[H:10])([H:7])([H:8])[H:9]"
C        2.24811129       0.22967154       0.00411390
C        0.78226457       0.41589751      -0.17955702
C       -0.03949220      -0.56955643      -0.77535030
C       -1.49212940      -0.19068813      -0.65157625
C       -1.61498438       0.12726363       0.88816816
O       -0.35214416      -0.06797647       1.47021610
H        2.54491413       0.56757317       0.99779014
H        2.78832181       0.83603338      -0.72774807
H        2.54846501      -0.81109368      -0.11760283
H        0.44787246       1.45011286      -0.12065891
H        0.34206653      -1.26749623      -1.50867304
H        0.01727254      -1.00988832       0.51507774
H       -2.15841599      -0.99754542      -0.95915801
H       -1.75560802       0.69487115      -1.23388203
H       -2.33683997      -0.55694579       1.34631146
H       -1.96967425       1.14976724       1.05252899
16
Frame=5 idx=005857 GeodesicLength=0.3230599320263515 rxn_smarts="[C:1]([C@@:2]1([H:10])[C:3]([H:11])([H:12])[C:4]([H:13])([H:14])[C:5]([H:15])([H:16])[O:6]1)([H:7])([H:8])[H:9]>>[C:1](/[C:2](=[C:3](/[C:4]([C:5]([O:6][H:12])([H:15])[H:16])([H:13])[H:14])[H:11])[H:10])([H:7])([H:8])[H:9]"
C        2.25355508       0.23059946       0.00094055
C        0.78546303       0.41711433      -0.17387843
C       -0.03799229      -0.57050393      -0.76598342
C       -1.49018086      -0.18310794      -0.64928300
C       -1.62595998       0.12134800       0.88842767
O       -0.36051224      -0.06013399       1.47418948
H        2.56064040       0.59104390       0.98359537
H        2.79047801       0.81488060      -0.75094574
H        2.55076077      -0.81366220      -0.09706173
H        0.45990400       1.45561940      -0.13986741
H        0.33758132      -1.26114276      -1.50926532
H        0.01257892      -1.02683117       0.53543419
H       -2.16106341      -0.98029019      -0.97158008
H       -1.74060730       0.71067233      -1.22467154
H       -2.33606356      -0.58104280       1.33781243
H       -1.99858189       1.13543695       1.06213698
16
Frame=6 idx=005857 GeodesicLength=0.38755871745104326 rxn_smarts="[C:1]([C@@:2]1([H:10])[C:3]([H:11])([H:12])[C:4]([H:13])([H:14])[C:5]([H:15])([H:16])[O:6]1)([H:7])([H:8])[H:9]>>[C:1](/[C:2](=[C:3](/[C:4]([C:5]([O:6][H:12])([H:15])[H:16])([H:13])[H:14])[H:11])[H:10])([H:7])([H:8])[H:9]"
C        2.25895611       0.23152279      -0.00225674
C        0.78868225       0.41871766      -0.16822848
C       -0.03646466      -0.57118839      -0.75653853
C       -1.48819049      -0.17540086      -0.64688884
C       -1.63700313       0.11529497       0.88864600
O       -0.36901391      -0.05237902       1.47799130
H        2.57641570       0.61432467       0.96866219
H        2.79243540       0.79301913      -0.77362294
H        2.55301890      -0.81569583      -0.07627367
H        0.47228324       1.46094763      -0.15977350
H        0.33308122      -1.25452294      -1.50957509
H        0.00755889      -1.04375058       0.55609952
H       -2.16335159      -0.96273691      -0.98396388
H       -1.72575767       0.72649561      -1.21493669
H       -2.33491916      -0.60508453       1.32904101
H       -2.02773109       1.12043661       1.07161833
16
Frame=7 idx=005857 GeodesicLength=0.4520105523514956 rxn_smarts="[C:1]([C@@:2]1([H:10])[C:3]([H:11])([H:12])[C:4]([H:13])([H:14])[C:5]([H:15])([H:16])[O:6]1)([H:7])([H:8])[H:9]>>[C:1](/[C:2](=[C:3](/[C:4]([C:5]([O:6][H:12])([H:15])[H:16])([H:13])[H:14])[H:11])[H:10])([H:7])([H:8])[H:9]"
C        2.26430767       0.23244907      -0.00547038
C        0.79191713       0.42072552      -0.16261823
C       -0.03490896      -0.57159285      -0.74703231
C       -1.48616446      -0.16756920      -0.64438851
C       -1.64810065       0.10910107       0.88881983
O       -0.37764155      -0.04474526       1.48162418
H        2.59222691       0.63739784       0.95299480
H        2.79419225       0.77046373      -0.79574123
H        2.55523255      -0.81717262      -0.05523926
H        0.48500815       1.46606609      -0.18039599
H        0.32857064      -1.24763263      -1.50961186
H        0.00220970      -1.06066138       0.57706033
H       -2.16528169      -0.94489522      -0.99628642
H       -1.71108691       0.74233598      -1.20466913
H       -2.33341845      -0.62903333       1.31999734
H       -2.05706232       1.10476319       1.08095686
16
Frame=8 idx=005857 GeodesicLength=0.5164132408408241 rxn_smarts="[C:1]([C@@:2]1([H:10])[C:3]([H:11])([H:12])[C:4]([H:13])([H:14])[C:5]([H:15])([H:16])[O:6]1)([H:7])([H:8])[H:9]>>[C:1](/[C:2](=[C:3](/[C:4]([C:5]([O:6][H:12])([H:15])[H:16])([H:13])[H:14])[H:11])[H:10])([H:7])([H:8])[H:9]"
C        2.26960246       0.23338674      -0.00869200
C        0.79516244       0.42315689      -0.15705999
C       -0.03332422      -0.57170005      -0.73748255
C       -1.48410896      -0.15961414      -0.64177749
C       -1.65923798       0.10276198       0.88894630
O       -0.38638542      -0.03726955       1.48509089
H        2.60806109       0.66025556       0.93659458
H        2.79574614       0.74722162      -0.81726729
H        2.55739218      -0.81807056      -0.03394763
H        0.49807522       1.47094133      -0.20175147
H        0.32405423      -1.24046727      -1.50938750
H       -0.00347108      -1.07758146       0.59830039
H       -2.16685733      -0.92677236      -1.00852689
H       -1.69662123       0.75819068      -1.19386110
H       -2.33157389      -0.65285488       1.31068183
H       -2.08651364       1.08841547       1.09013993
16
Frame=9 idx=005857 GeodesicLength=0.5807656787883262 rxn_smarts="[C:1]([C@@:2]1([H:10])[C:3]([H:11])([H:12])[C:4]([H:13])([H:14])[C:5]([H:15])([H:16])[O:6]1)([H:7])([H:8])[H:9]>>[C:1](/[C:2](=[C:3](/[C:4]([C:5]([O:6][H:12])([H:15])[H:16])([H:13])[H:14])[H:11])[H:10])([H:7])([H:8])[H:9]"
C        2.27483273       0.23434489      -0.01191322
C        0.79841212       0.42603090      -0.15157024
C       -0.03171002      -0.57149517      -0.72790745
C       -1.48203076      -0.15153894      -0.63905065
C       -1.67039880       0.09627626       0.88902245
O       -0.39523284      -0.02998694       1.48839555
H        2.62390189       0.68287633       0.91947050
H        2.79709851       0.72331417      -0.83815652
H        2.55948990      -0.81836486      -0.01240232
H        0.51147961       1.47553707      -0.22386004
H        0.31953585      -1.23302510      -1.50891417
H       -0.00948540      -1.09453018       0.61980437
H       -2.16808370      -0.90837916      -1.02066014
H       -1.68238774       0.77405327      -1.18250673
H       -2.32940094      -0.67651205       1.30109642
H       -2.11602040       1.07139951       1.09915219
16
Frame=10 idx=005857 GeodesicLength=0.6450665640099018 rxn_smarts="[C:1]([C@@:2]1([H:10])[C:3]([H:11])([H:12])[C:4]([H:13])([H:14])[C:5]([H:15])([H:16])[O:6]1)([H:7])([H:8])[H:9]>>[C:1](/[C:2](=[C:3](/[C:4]([C:5]([O:6][H:12])([H:15])[H:16])([H:13])[H:14])[H:11])[H:10])([H:7])([H:8])[H:9]"
C        2.27999031       0.23533334      -0.01512486
C        0.80166012       0.42936787      -0.14616722
C       -0.03006532      -0.57096329      -0.71832603
C       -1.47993649      -0.14334548      -0.63620372
C       -1.68156550       0.08964167       0.88904604
O       -0.40416886      -0.02293456       1.49154187
H        2.63973308       0.70524865       0.90162911
H        2.79825068       0.69875452      -0.85836988
H        2.56151522      -0.81803099       0.00940488
H        0.52521473       1.47981529      -0.24673927
H        0.31501911      -1.22530402      -1.50820686
H       -0.01583513      -1.11152995       0.64155450
H       -2.16896863      -0.88972370      -1.03266388
H       -1.66841119       0.78991999      -1.17060088
H       -2.32691472      -0.69997232       1.29124398
H       -2.14551742       1.05372297       1.10798224
16
Frame=11 idx=005857 GeodesicLength=0.7093170114708973 rxn_smarts="[C:1]([C@@:2]1([H:10])[C:3]([H:11])([H:12])[C:4]([H:13])([H:14])[C:5]([H:15])([H:16])[O:6]1)([H:7])([H:8])[H:9]>>[C:1](/[C:2](=[C:3](/[C:4]([C:5]([O:6][H:12])([H:15])[H:16])([H:13])[H:14])[H:11])[H:10])([H:7])([H:8])[H:9]"
C        2.28506693       0.23636284      -0.01831766
C        0.80490033       0.43318830      -0.14087244
C       -0.02838894      -0.57009141      -0.70875807
C       -1.47783272      -0.13503545      -0.63323306
C       -1.69271941       0.08285685       0.88901528
O       -0.41317607      -0.01614949       1.49453483
H        2.65553772       0.72736215       0.88307766
H        2.79920518       0.67355693      -0.87786762
H        2.56345620      -0.81704282       0.03148343
H        0.53927298       1.48373594      -0.27040531
H        0.31050703      -1.21730396      -1.50728198
H       -0.02252260      -1.12860628       0.66353285
H       -2.16952218      -0.87081306      -1.04451643
H       -1.65471409       0.80578739      -1.15814032
H       -2.32413154      -0.72320566       1.28112740
H       -2.17493882       1.03539773       1.11662142
16
Frame=12 idx=005857 GeodesicLength=0.7735312793561959 rxn_smarts="[C:1]([C@@:2]1([H:10])[C:3]([H:11])([H:12])[C:4]([H:13])([H:14])[C:5]([H:15])([H:16])[O:6]1)([H:7])([H:8])[H:9]>>[C:1](/[C:2](=[C:3](/[C:4]([C:5]([O:6][H:12])([H:15])[H:16])([H:13])[H:14])[H:11])[H:10])([H:7])([H:8])[H:9]"
C        2.29005414       0.23744505      -0.02148120
C        0.80812667       0.43751492      -0.13571026
C       -0.02667999      -0.56886922      -0.69922635
C       -1.47572577      -0.12660909      -0.63013827
C       -1.70384034       0.07592004       0.88893199
O       -0.42223449      -0.00966992       1.49738439
H        2.67129863       0.74921961       0.86382350
H        2.79996535       0.64772744      -0.89661736
H        2.56529865      -0.81537686       0.05385630
H        0.55364502       1.48726294      -0.29487270
H        0.30600074      -1.20902843      -1.50616495
H       -0.02955104      -1.14579237       0.68572278
H       -2.16975703      -0.85165294      -1.05620395
H       -1.64131534       0.82165854      -1.14512590
H       -2.32106626      -0.74618998       1.27075408
H       -2.20421893       1.01644025       1.12506790
16
Frame=13 idx=005857 GeodesicLength=0.8377819987176193 rxn_smarts="[C:1]([C@@:2]1([H:10])[C:3]([H:11])([H:12])[C:4]([H:13])([H:14])[C:5]([H:15])([H:16])[O:6]1)([H:7])([H:8])[H:9]>>[C:1](/[C:2](=[C:3](/[C:4]([C:5]([O:6][H:12])([H:15])[H:16])([H:13])[H:14])[H:11])[H:10])([H:7])([H:8])[H:9]"
C        2.29494421       0.23859244      -0.02459723
C        0.81133082       0.44237646      -0.13070708
C       -0.02494108      -0.56730044      -0.68976585
C       -1.47362765      -0.11806572      -0.62693543
C       -1.71490077       0.06883364       0.88880864
O       -0.43130901      -0.00353349       1.50012718
H        2.68700374       0.77084195       0.84389410
H        2.80052507       0.62127144      -0.91459495
H        2.56703508      -0.81302646       0.07656583
H        0.56831022       1.49038497      -0.32015999
H        0.30149188      -1.20050206      -1.50491235
H       -0.03691341      -1.16314851       0.70812156
H       -2.16969578      -0.83225658      -1.06774274
H       -1.62824423       0.83755745      -1.13158255
H       -2.31772145      -0.76891727       1.26014590
H       -2.23328763       0.99689219       1.13333495
16
Frame=14 idx=005857 GeodesicLength=0.9019014798003046 rxn_smarts="[C:1]([C@@:2]1([H:10])[C:3]([H:11])([H:12])[C:4]([H:13])([H:14])[C:5]([H:15])([H:16])[O:6]1)([H:7])([H:8])[H:9]>>[C:1](/[C:2](=[C:3](/[C:4]([C:5]([O:6][H:12])([H:15])[H:16])([H:13])[H:14])[H:11])[H:10])([H:7])([H:8])[H:9]"
C        2.29973084       0.23980389      -0.02769514
C        0.81451296       0.44776252      -0.12590659
C       -0.02316540      -0.56535747      -0.68033839
C       -1.47152532      -0.10938049      -0.62357603
C       -1.72590587       0.06157346       0.88859989
O       -0.44040592       0.00228559       1.50269085
H        2.70265930       0.79219020       0.82315786
H        2.80089384       0.59415047      -0.93173973
H        2.56862633      -0.80988391       0.09962964
H        0.58328796       1.49296631      -0.34624486
H        0.29698643      -1.19170300      -1.50340353
H       -0.04462327      -1.18059682       0.73071311
H       -2.16933852      -0.81251724      -1.07907737
H       -1.61546121       0.85346498      -1.11740388
H       -2.31409308      -0.79139927       1.24919317
H       -2.26217909       0.97664078       1.14140100
16
Frame=15 idx=005857 GeodesicLength=0.9658439950611462 rxn_smarts="[C:1]([C@@:2]1([H:10])[C:3]([H:11])([H:12])[C:4]([H:13])([H:14])[C:5]([H:15])([H:16])[O:6]1)([H:7])([H:8])[H:9]>>[C:1](/[C:2](=[C:3](/[C:4]([C:5]([O:6][H:12])([H:15])[H:16])([H:13])[H:14])[H:11])[H:10])([H:7])([H:8])[H:9]"
C        2.30439882       0.24110960      -0.03072815
C        0.81766055       0.45370929      -0.12131375
C       -0.02134669      -0.56298477      -0.67099715
C       -1.46943530      -0.10057572      -0.62004918
C       -1.73680831       0.05414201       0.88830925
O       -0.44948457       0.00762872       1.50504943
H        2.71820587       0.81332202       0.80164747
H        2.80108415       0.56629307      -0.94801127
H        2.57006028      -0.80590402       0.12312249
H        0.59853208       1.49495477      -0.37313359
H        0.29250855      -1.18252878      -1.50174161
H       -0.05269547      -1.19823002       0.75338032
H       -2.16869751      -0.79251535      -1.09011622
H       -1.60303064       0.86932848      -1.10260674
H       -2.31025516      -0.81352144       1.23796534
H       -2.29069665       0.95577214       1.14922337
16
Frame=16 idx=005857 GeodesicLength=1.0298525537260907 rxn_smarts="[C:1]([C@@:2]1([H:10])[C:3]([H:11])([H:12])[C:4]([H:13])([H:14])[C:5]([H:15])([H:16])[O:6]1)([H:7])([H:8])[H:9]>>[C:1](/[C:2](=[C:3](/[C:4]([C:5]([O:6][H:12])([H:15])[H:16])([H:13])[H:14])[H:11])[H:10])([H:7])([H:8])[H:9]"
C        2.30894729       0.24251957      -0.03369129
C        0.82077020       0.46025647      -0.11698060
C       -0.01949559      -0.56023628      -0.66179008
C       -1.46736781      -0.09163046      -0.61641281
C       -1.74758874       0.04654416       0.88797567
O       -0.45850108       0.01253003       1.50731745
H        2.73367668       0.83427098       0.77938999
H        2.80107905       0.53772312      -0.96341431
H        2.57132041      -0.80110561       0.14710948
H        0.61403651       1.49641167      -0.40083515
H        0.28802238      -1.17312159      -1.49999777
H       -0.06111426      -1.21613647       0.77620487
H       -2.16781190      -0.77223289      -1.10097975
H       -1.59095451       0.88525064      -1.08726006
H       -2.30616591      -0.83537672       1.22647493
H       -2.31885271       0.93433339       1.15688944
