12
Frame=0 idx=005835 GeodesicLength=0.0 rxn_smarts="[N:1]([C@@:2]([C:3]([O:4][H:12])([H:10])[H:11])([C:5]#[N:6])[H:9])([H:7])[H:8]>>[C:3](=[O:4])([H:10])[H:11].[N:1]([C:2](=[C:5]=[N:6][H:12])[H:9])([H:7])[H:8]"
N        0.44194205       0.41890381       1.66199415
C        0.75282268      -0.17518331       0.41878307
C       -1.18776155      -0.67488764      -0.43748825
O       -1.35345973      -0.26087864      -1.61553232
C        0.99316499       0.51532880      -0.73630102
N        0.77120626       0.93077968      -1.82789929
H        1.20346338       0.38182197       2.32304556
H        0.10588586       1.36659782       1.57792888
H        1.23382321      -1.14393652       0.48979379
H       -1.01413147      -1.74455927      -0.26901119
H       -1.63514118      -0.13392825       0.40539257
H       -0.31181454       0.51994155      -1.99070595
12
Frame=1 idx=005835 GeodesicLength=0.10787424893535112 rxn_smarts="[N:1]([C@@:2]([C:3]([O:4][H:12])([H:10])[H:11])([C:5]#[N:6])[H:9])([H:7])[H:8]>>[C:3](=[O:4])([H:10])[H:11].[N:1]([C:2](=[C:5]=[N:6][H:12])[H:9])([H:7])[H:8]"
N        0.44272945       0.44519333       1.65296202
C        0.74253013      -0.18945543       0.42525721
C       -1.18557389      -0.68437881      -0.43948388
O       -1.38366801      -0.21676470      -1.59490325
C        1.02336654       0.47857094      -0.73595884
N        0.79878501       0.92082594      -1.81678899
H        1.20488895       0.41619110       2.31374095
H        0.12386591       1.39601826       1.54038176
H        1.21936384      -1.15762587       0.52755959
H       -1.00154412      -1.76124677      -0.33792184
H       -1.64919798      -0.20635706       0.43173322
H       -0.33554583       0.55902908      -1.96657795
12
Frame=2 idx=005835 GeodesicLength=0.21550192934846393 rxn_smarts="[N:1]([C@@:2]([C:3]([O:4][H:12])([H:10])[H:11])([C:5]#[N:6])[H:9])([H:7])[H:8]>>[C:3](=[O:4])([H:10])[H:11].[N:1]([C:2](=[C:5]=[N:6][H:12])[H:9])([H:7])[H:8]"
N        0.44283952       0.47102185       1.64254356
C        0.73278569      -0.20248075       0.43131850
C       -1.18392452      -0.69316207      -0.44061885
O       -1.41370773      -0.17089283      -1.56917083
C        1.05245361       0.44216660      -0.73529273
N        0.82669059       0.90825630      -1.80624855
H        1.20531699       0.45036309       2.30332472
H        0.14041456       1.42359824       1.50170075
H        1.20403000      -1.16978317       0.56452643
H       -0.98858644      -1.77285213      -0.40818156
H       -1.66097129      -0.28209678       0.45672318
H       -0.35734097       0.59586164      -1.94062463
12
Frame=3 idx=005835 GeodesicLength=0.32294471708136013 rxn_smarts="[N:1]([C@@:2]([C:3]([O:4][H:12])([H:10])[H:11])([C:5]#[N:6])[H:9])([H:7])[H:8]>>[C:3](=[O:4])([H:10])[H:11].[N:1]([C:2](=[C:5]=[N:6][H:12])[H:9])([H:7])[H:8]"
N        0.44224515       0.49614360       1.63100180
C        0.72358764      -0.21427239       0.43695015
C       -1.18273099      -0.70132127      -0.44092628
O       -1.44297925      -0.12462897      -1.53875200
C        1.08026331       0.40671008      -0.73412323
N        0.85457795       0.89348481      -1.79634842
H        1.20462679       0.48368149       2.29215456
H        0.15594290       1.44934497       1.46247272
H        1.18818587      -1.18029710       0.60034057
H       -0.97576188      -1.77918341      -0.47857894
H       -1.67030372      -0.35987965       0.47929195
H       -0.37765376       0.63021785      -1.91348288
12
Frame=4 idx=005835 GeodesicLength=0.43031331683575613 rxn_smarts="[N:1]([C@@:2]([C:3]([O:4][H:12])([H:10])[H:11])([C:5]#[N:6])[H:9])([H:7])[H:8]>>[C:3](=[O:4])([H:10])[H:11].[N:1]([C:2](=[C:5]=[N:6][H:12])[H:9])([H:7])[H:8]"
N        0.44098738       0.52042739       1.61858442
C        0.71489364      -0.22490378       0.44216005
C       -1.18190063      -0.70900511      -0.44051323
O       -1.47102872      -0.07928785      -1.50436200
C        1.10678069       0.37256215      -0.73236074
N        0.88217979       0.87708634      -1.78705044
H        1.20277995       0.51563463       2.28058493
H        0.17097417       1.47338579       1.42316801
H        1.17213242      -1.18916308       0.63482524
H       -0.96350607      -1.78040005      -0.54799851
H       -1.67725846      -0.43847541       0.49860120
H       -0.39703417       0.66213899      -1.88563892
12
Frame=5 idx=005835 GeodesicLength=0.537645006358032 rxn_smarts="[N:1]([C@@:2]([C:3]([O:4][H:12])([H:10])[H:11])([C:5]#[N:6])[H:9])([H:7])[H:8]>>[C:3](=[O:4])([H:10])[H:11].[N:1]([C:2](=[C:5]=[N:6][H:12])[H:9])([H:7])[H:8]"
N        0.43915902       0.54381174       1.60546331
C        0.70663397      -0.23449537       0.44696094
C       -1.18130739      -0.71640117      -0.43952530
O       -1.49753034      -0.03604198      -1.46690143
C        1.13206081       0.33990205      -0.72995979
N        0.90935969       0.85956500      -1.77826123
H        1.19981786       0.54589434       2.26885704
H        0.18597642       1.49586713       1.38410027
H        1.15610461      -1.19645818       0.66791922
H       -0.95212359      -1.77695352      -0.61543117
H       -1.68207253      -0.51672265       0.51403695
H       -0.41607853       0.69203260      -1.85725882
12
Frame=6 idx=005835 GeodesicLength=0.6449947571249631 rxn_smarts="[N:1]([C@@:2]([C:3]([O:4][H:12])([H:10])[H:11])([C:5]#[N:6])[H:9])([H:7])[H:8]>>[C:3](=[O:4])([H:10])[H:11].[N:1]([C:2](=[C:5]=[N:6][H:12])[H:9])([H:7])[H:8]"
N        0.43686834       0.56642870       1.59175786
C        0.69870798      -0.24315647       0.45140701
C       -1.18087859      -0.72367089      -0.43813983
O       -1.52253647       0.00458567      -1.42699088
C        1.15625735       0.30861658      -0.72691961
N        0.93614888       0.84117295      -1.76988977
H        1.19579737       0.57446284       2.25717264
H        0.20140561       1.51704127       1.34539375
H        1.14013952      -1.20226428       0.69977166
H       -0.94171521      -1.76929846      -0.68063463
H       -1.68495277      -0.59418218       0.52545018
H       -0.43524200       0.72026426      -1.82837838
12
Frame=7 idx=005835 GeodesicLength=0.7523861287716804 rxn_smarts="[N:1]([C@@:2]([C:3]([O:4][H:12])([H:10])[H:11])([C:5]#[N:6])[H:9])([H:7])[H:8]>>[C:3](=[O:4])([H:10])[H:11].[N:1]([C:2](=[C:5]=[N:6][H:12])[H:9])([H:7])[H:8]"
N        0.43422452       0.58839453       1.57751683
C        0.69103169      -0.25100115       0.45554350
C       -1.18053247      -0.73095013      -0.43650760
O       -1.54615467       0.04223834      -1.38519161
C        1.17951684       0.27856409      -0.72324274
N        0.96265950       0.82205997      -1.76185931
H        1.19080677       0.60142942       2.24561854
H        0.21755249       1.53708627       1.30707338
H        1.12425484      -1.20668787       0.73054755
H       -0.93231591      -1.75790980      -0.74340607
H       -1.68613418      -0.67052230       0.53278813
H       -0.45490941       0.74729863      -1.79888060
12
Frame=8 idx=005835 GeodesicLength=0.8598362742290862 rxn_smarts="[N:1]([C@@:2]([C:3]([O:4][H:12])([H:10])[H:11])([C:5]#[N:6])[H:9])([H:7])[H:8]>>[C:3](=[O:4])([H:10])[H:11].[N:1]([C:2](=[C:5]=[N:6][H:12])[H:9])([H:7])[H:8]"
N        0.43131970       0.60985552       1.56274516
C        0.68352744      -0.25812447       0.45941651
C       -1.18020260      -0.73833920      -0.43475811
O       -1.56858031       0.07679504      -1.34187696
C        1.20198915       0.24953778      -0.71894101
N        0.98905711       0.80223287      -1.75412779
H        1.18491357       0.62697622       2.23422951
H        0.23463304       1.55615781       1.26908681
H        1.10840197      -1.20981639       0.76044603
H       -0.92388281      -1.74316537      -0.80377144
H       -1.68579521      -0.74567057       0.53611781
H       -0.47538105       0.77356076      -1.76856653
12
Frame=9 idx=005835 GeodesicLength=0.9673614983365811 rxn_smarts="[N:1]([C@@:2]([C:3]([O:4][H:12])([H:10])[H:11])([C:5]#[N:6])[H:9])([H:7])[H:8]>>[C:3](=[O:4])([H:10])[H:11].[N:1]([C:2](=[C:5]=[N:6][H:12])[H:9])([H:7])[H:8]"
N        0.42823753       0.63095930       1.54742580
C        0.67613895      -0.26461198       0.46307031
C       -1.17983628      -0.74591853      -0.43301158
O       -1.59004428       0.10823756      -1.29730523
C        1.22382005       0.22131077      -0.71401755
N        1.01551611       0.78157913      -1.74669099
H        1.17818647       0.65134067       2.22300809
H        0.25277987       1.57437456       1.23134800
H        1.09252099      -1.21172930       0.78966420
H       -0.91632115      -1.72536245      -0.86185979
H       -1.68408496      -0.81964522       0.53551559
H       -0.49691330       0.79946551      -1.73714685
12
Frame=10 idx=005835 GeodesicLength=1.0749913751207618 rxn_smarts="[N:1]([C@@:2]([C:3]([O:4][H:12])([H:10])[H:11])([C:5]#[N:6])[H:9])([H:7])[H:8]>>[C:3](=[O:4])([H:10])[H:11].[N:1]([C:2](=[C:5]=[N:6][H:12])[H:9])([H:7])[H:8]"
N        0.42503778       0.65186099       1.53149706
C        0.66881082      -0.27052036       0.46654463
C       -1.17939154      -0.75373706      -0.43136382
O       -1.61079209       0.13663784      -1.25157771
C        1.24513849       0.19365809      -0.70846416
N        1.04222998       0.75996756      -1.73953324
H        1.17063038       0.67474715       2.21192946
H        0.27214663       1.59184991       1.19373021
H        1.07650152      -1.21247561       0.81840115
H       -0.90954608      -1.70467657      -0.91787053
H       -1.68104728      -0.89261663       0.53106499
H       -0.51971860       0.82530468      -1.70435803
12
Frame=11 idx=005835 GeodesicLength=1.182726228514973 rxn_smarts="[N:1]([C@@:2]([C:3]([O:4][H:12])([H:10])[H:11])([C:5]#[N:6])[H:9])([H:7])[H:8]>>[C:3](=[O:4])([H:10])[H:11].[N:1]([C:2](=[C:5]=[N:6][H:12])[H:9])([H:7])[H:8]"
N        0.42178019       0.67268348       1.51489263
C        0.66149910      -0.27589386       0.46986538
C       -1.17882430      -0.76182452      -0.42989878
O       -1.63104775       0.16203113      -1.20477225
C        1.26605104       0.16637928      -0.70226866
N        1.06940154       0.73725133      -1.73263832
H        1.16226612       0.69741644       2.20094676
H        0.29282532       1.60864187       1.15612398
H        1.06023388      -1.21208204       0.84681083
H       -0.90348047      -1.68122177      -0.97195495
H       -1.67670748      -0.96470180       0.52280280
H       -0.54399720       0.85132045      -1.66990942
12
Frame=12 idx=005835 GeodesicLength=1.2905926504334746 rxn_smarts="[N:1]([C@@:2]([C:3]([O:4][H:12])([H:10])[H:11])([C:5]#[N:6])[H:9])([H:7])[H:8]>>[C:3](=[O:4])([H:10])[H:11].[N:1]([C:2](=[C:5]=[N:6][H:12])[H:9])([H:7])[H:8]"
N        0.41850902       0.69356168       1.49751398
C        0.65416687      -0.28076410       0.47305535
C       -1.17809911      -0.77020745      -0.42869984
O       -1.65104085       0.18446020      -1.15687855
C        1.28666456       0.13926662      -0.69540500
N        1.09723871       0.71322073      -1.72600051
H        1.15306267       0.71956716       2.19000778
H        0.31494417       1.62481156       1.11839054
H        1.04359227      -1.21055732       0.87504971
H       -0.89803710      -1.65503209      -1.02429892
H       -1.67103151      -1.03606579       0.51071615
H       -0.56996971       0.87773881      -1.63345071
12
Frame=13 idx=005835 GeodesicLength=1.398607488808603 rxn_smarts="[N:1]([C@@:2]([C:3]([O:4][H:12])([H:10])[H:11])([C:5]#[N:6])[H:9])([H:7])[H:8]>>[C:3](=[O:4])([H:10])[H:11].[N:1]([C:2](=[C:5]=[N:6][H:12])[H:9])([H:7])[H:8]"
N        0.41527059       0.71462295       1.47924783
C        0.64678361      -0.28515283       0.47613167
C       -1.17718218      -0.77890713      -0.42785620
O       -1.67100067       0.20392042      -1.10786595
C        1.30707941       0.11211782      -0.68783113
N        1.12595807       0.68763561      -1.71961475
H        1.14298527       0.74142188       2.17904324
H        0.33862774       1.64039209       1.08038758
H        1.02644380      -1.20789181       0.90325721
H       -0.89312907      -1.62608542      -1.07506488
H       -1.66395955      -1.10683662       0.49472759
H       -0.59787702       0.90476305      -1.59456222
12
Frame=14 idx=005835 GeodesicLength=1.5068092994227018 rxn_smarts="[N:1]([C@@:2]([C:3]([O:4][H:12])([H:10])[H:11])([C:5]#[N:6])[H:9])([H:7])[H:8]>>[C:3](=[O:4])([H:10])[H:11].[N:1]([C:2](=[C:5]=[N:6][H:12])[H:9])([H:7])[H:8]"
N        0.41210027       0.73599924       1.45993701
C        0.63931619      -0.28906668       0.47910542
C       -1.17602978      -0.78792502      -0.42745298
O       -1.69114837       0.22039486      -1.05762051
C        1.32738740       0.08471740      -0.67948906
N        1.15581071       0.66021485      -1.71345863
H        1.13194551       0.76319611       2.16796054
H        0.36403580       1.65540312       1.04194194
H        1.00862211      -1.20404292       0.93157590
H       -0.88869455      -1.59425327      -1.12441689
H       -1.65534175      -1.17718165       0.47469915
H       -0.62800353       0.93254395      -1.55278188
12
Frame=15 idx=005835 GeodesicLength=1.6152515568040777 rxn_smarts="[N:1]([C@@:2]([C:3]([O:4][H:12])([H:10])[H:11])([C:5]#[N:6])[H:9])([H:7])[H:8]>>[C:3](=[O:4])([H:10])[H:11].[N:1]([C:2](=[C:5]=[N:6][H:12])[H:9])([H:7])[H:8]"
N        0.40903171       0.75783961       1.43938853
C        0.63173371      -0.29250311       0.48197995
C       -1.17460021      -0.79727220      -0.42759242
O       -1.71171746       0.23380610      -1.00598045
C        1.34768775       0.05683721      -0.67030733
N        1.18706954       0.63060326      -1.70751241
H        1.11981508       0.78512732       2.15666413
H        0.39138613       1.66986166       1.00285508
H        0.98993929      -1.19894439       0.96014589
H       -0.88466779      -1.55933501      -1.17252475
H       -1.64499167      -1.24725811       0.45040794
H       -0.66068608       0.96123766      -1.50752416
12
Frame=16 idx=005835 GeodesicLength=1.7239813244646405 rxn_smarts="[N:1]([C@@:2]([C:3]([O:4][H:12])([H:10])[H:11])([C:5]#[N:6])[H:9])([H:7])[H:8]>>[C:3](=[O:4])([H:10])[H:11].[N:1]([C:2](=[C:5]=[N:6][H:12])[H:9])([H:7])[H:8]"
N        0.40611264       0.78028157       1.41736743
C        0.62400099      -0.29545187       0.48474411
C       -1.17283629      -0.80693796      -0.42839015
O       -1.73293335       0.24399275      -0.95276849
C        1.36807858       0.02823017      -0.66019145
N        1.22006249       0.59840555      -1.70171833
H        1.10647185       0.80748186       2.14499112
H        0.42087336       1.68373671       0.96291343
H        0.97016446      -1.19249911       0.98908776
H       -0.88099232      -1.52105186      -1.21950378
H       -1.63267790      -1.31715496       0.42153920
H       -0.69632452       0.99096715      -1.45807083
