15
Frame=0 idx=008429 GeodesicLength=0.0 rxn_smarts="[C:1]1([H:8])([H:9])[C@@:2]2([H:10])[C@@:3]3([H:11])[O:4][C:5]([H:12])([H:13])[C@:6]1([H:14])[C@@:7]23[H:15]>>[C:1]1([H:8])([H:9])[C@@:2]2([H:10])[C:5]([H:12])([H:13])[C@:6]1([H:14])[C@:7]2([C:3](=[O:4])[H:11])[H:15]"
C        0.64073846       1.42407965       0.08681875
C        1.34795274       0.14105105       0.24767148
C       -0.10533703      -1.87806499      -0.15628457
O       -0.99784112      -1.94611412       0.64639400
C       -1.35103826       0.27627278       0.76732525
C       -0.57605523       0.60848069      -0.39569410
C        0.45678748      -0.58722241      -0.69993582
H        0.47275985       2.10142946       0.93713046
H        0.99717053       2.02637867      -0.76145322
H        2.41240048      -0.01841286       0.37876876
H        0.37610757      -2.80212302      -0.51674424
H       -0.95477680       0.50770722       1.74594002
H       -2.39132413      -0.01396275       0.70437439
H       -1.16009685       0.93350626      -1.26134723
H        0.83255231      -0.77300568      -1.72296392
15
Frame=1 idx=008429 GeodesicLength=0.08731084693344814 rxn_smarts="[C:1]1([H:8])([H:9])[C@@:2]2([H:10])[C@@:3]3([H:11])[O:4][C:5]([H:12])([H:13])[C@:6]1([H:14])[C@@:7]23[H:15]>>[C:1]1([H:8])([H:9])[C@@:2]2([H:10])[C:5]([H:12])([H:13])[C@:6]1([H:14])[C@:7]2([C:3](=[O:4])[H:11])[H:15]"
C        0.63917339       1.42035267       0.07932947
C        1.32099897       0.12219722       0.25776908
C       -0.08736014      -1.86871787      -0.15322725
O       -0.99684250      -1.94081049       0.63797409
C       -1.33188529       0.26272914       0.77318151
C       -0.58210045       0.61297973      -0.40619637
C        0.44127752      -0.57948264      -0.72437245
H        0.47559212       2.09979184       0.92811156
H        1.01557414       2.01457988      -0.76510353
H        2.38225755      -0.04461392       0.40740164
H        0.40528031      -2.79102360      -0.50144197
H       -0.95911028       0.53142498       1.75178012
H       -2.37293638      -0.02816787       0.71657342
H       -1.17705678       0.94931798      -1.25920072
H        0.82713782      -0.76055705      -1.74257859
15
Frame=2 idx=008429 GeodesicLength=0.1746827043288624 rxn_smarts="[C:1]1([H:8])([H:9])[C@@:2]2([H:10])[C@@:3]3([H:11])[O:4][C:5]([H:12])([H:13])[C@:6]1([H:14])[C@@:7]23[H:15]>>[C:1]1([H:8])([H:9])[C@@:2]2([H:10])[C:5]([H:12])([H:13])[C@:6]1([H:14])[C@:7]2([C:3](=[O:4])[H:11])[H:15]"
C        0.63778764       1.41647654       0.07205787
C        1.29468242       0.10411238       0.26697060
C       -0.07013108      -1.85928576      -0.15044611
O       -0.99590801      -1.93581845       0.62966504
C       -1.31256161       0.24952831       0.77902193
C       -0.58783925       0.61697841      -0.41612544
C        0.42639442      -0.57237029      -0.74700069
H        0.47882185       2.09760959       0.91964385
H        1.03335608       2.00264825      -0.76835979
H        2.35267037      -0.06935696       0.43399510
H        0.43349295      -2.77953237      -0.48671897
H       -0.96477787       0.55489533       1.75647699
H       -2.35438866      -0.04183808       0.72807186
H       -1.19327300       0.96418815      -1.25653157
H        0.82167375      -0.74823505      -1.76072065
15
Frame=3 idx=008429 GeodesicLength=0.2621094414031533 rxn_smarts="[C:1]1([H:8])([H:9])[C@@:2]2([H:10])[C@@:3]3([H:11])[O:4][C:5]([H:12])([H:13])[C@:6]1([H:14])[C@@:7]23[H:15]>>[C:1]1([H:8])([H:9])[C@@:2]2([H:10])[C:5]([H:12])([H:13])[C@:6]1([H:14])[C@:7]2([C:3](=[O:4])[H:11])[H:15]"
C        0.63656758       1.41247538       0.06499664
C        1.26904095       0.08677175       0.27535620
C       -0.05364461      -1.84980886      -0.14793734
O       -0.99498127      -1.93106295       0.62158665
C       -1.29310638       0.23668678       0.78486319
C       -0.59329723       0.62051903      -0.42550552
C        0.41207673      -0.56582790      -0.76801725
H        0.48240636       2.09492285       0.91170151
H        1.05054788       1.99061499      -0.77124766
H        2.32371035      -0.09272186       0.45875674
H        0.46074598      -2.76772590      -0.47251288
H       -0.97169333       0.57798880       1.75997626
H       -2.33571788      -0.05501006       0.73890013
H       -1.20878975       0.97821302      -1.25335817
H        0.81613463      -0.73603505      -1.77755851
15
Frame=4 idx=008429 GeodesicLength=0.3495856476263476 rxn_smarts="[C:1]1([H:8])([H:9])[C@@:2]2([H:10])[C@@:3]3([H:11])[O:4][C:5]([H:12])([H:13])[C@:6]1([H:14])[C@@:7]23[H:15]>>[C:1]1([H:8])([H:9])[C@@:2]2([H:10])[C:5]([H:12])([H:13])[C@:6]1([H:14])[C@:7]2([C:3](=[O:4])[H:11])[H:15]"
C        0.63550138       1.40836999       0.05814127
C        1.24410152       0.07014399       0.28299777
C       -0.03788027      -1.84031457      -0.14568299
O       -0.99402300      -1.92647300       0.61383960
C       -1.27356522       0.22422004       0.79070949
C       -0.59849670       0.62364601      -0.43436308
C        0.39826423      -0.55980156      -0.78759143
H        0.48630755       2.09176498       0.90426474
H        1.06718268       1.97850720      -0.77378736
H        2.29542481      -0.11478372       0.48184864
H        0.48705946      -2.75566459      -0.45875384
H       -0.97975714       0.60056698       1.76224781
H       -2.31696771      -0.06771233       0.74907283
H       -1.22364039       0.99148677      -1.24970580
H        0.81048880      -0.72395619      -1.79323766
15
Frame=5 idx=008429 GeodesicLength=0.4370960754609145 rxn_smarts="[C:1]1([H:8])([H:9])[C@@:2]2([H:10])[C@@:3]3([H:11])[O:4][C:5]([H:12])([H:13])[C@:6]1([H:14])[C@@:7]23[H:15]>>[C:1]1([H:8])([H:9])[C@@:2]2([H:10])[C:5]([H:12])([H:13])[C@:6]1([H:14])[C@:7]2([C:3](=[O:4])[H:11])[H:15]"
C        0.63457652       1.40418147       0.05148468
C        1.21988357       0.05419632       0.28994935
C       -0.02280943      -1.83081809      -0.14365429
O       -0.99300966      -1.92198216       0.60649747
C       -1.25398387       0.21214877       0.79656500
C       -0.60346019       0.62640283      -0.44272521
C        0.38489518      -0.55424098      -0.80587548
H        0.49049107       2.08816554       0.89731388
H        1.08329125       1.96635376      -0.77600308
H        2.26786013      -0.13562875       0.50342490
H        0.51247384      -2.74338920      -0.44536335
H       -0.98886504       0.62247296       1.76327276
H       -2.29818727      -0.07995848       0.75860395
H       -1.23785820       1.00409654      -1.24560305
H        0.80470209      -0.71200054      -1.80788754
15
Frame=6 idx=008429 GeodesicLength=0.5246393485482937 rxn_smarts="[C:1]1([H:8])([H:9])[C@@:2]2([H:10])[C@@:3]3([H:11])[O:4][C:5]([H:12])([H:13])[C@:6]1([H:14])[C@@:7]23[H:15]>>[C:1]1([H:8])([H:9])[C@@:2]2([H:10])[C:5]([H:12])([H:13])[C@:6]1([H:14])[C@:7]2([C:3](=[O:4])[H:11])[H:15]"
C        0.63378247       1.39993068       0.04502039
C        1.19639680       0.03890038       0.29626456
C       -0.00838706      -1.82132775      -0.14180511
O       -0.99192548      -1.91753059       0.59963379
C       -1.23440789       0.20048912       0.80242295
C       -0.60820385       0.62883042      -0.45062360
C        0.37192038      -0.54910247      -0.82299083
H        0.49492109       2.08415331       0.89083184
H        1.09890518       1.95417704      -0.77791011
H        2.24103916      -0.15531760       0.52359821
H        0.53700443      -2.73093541      -0.43229344
H       -0.99890880       0.64355099       1.76305681
H       -2.27941904      -0.09175847       0.76749424
H       -1.25145877       1.01611557      -1.24108825
H        0.79874140      -0.70017522      -1.82161144
15
Frame=7 idx=008429 GeodesicLength=0.612209330856354 rxn_smarts="[C:1]1([H:8])([H:9])[C@@:2]2([H:10])[C@@:3]3([H:11])[O:4][C:5]([H:12])([H:13])[C@:6]1([H:14])[C@@:7]23[H:15]>>[C:1]1([H:8])([H:9])[C@@:2]2([H:10])[C:5]([H:12])([H:13])[C@:6]1([H:14])[C@:7]2([C:3](=[O:4])[H:11])[H:15]"
C        0.63310739       1.39563608       0.03874156
C        1.17364226       0.02422476       0.30199163
C        0.00542494      -1.81184798      -0.14010057
O       -0.99076073      -1.91306398       0.59330660
C       -1.21489001       0.18925645       0.80826601
C       -0.61274372       0.63096891      -0.45809248
C        0.35929076      -0.54434534      -0.83904865
H        0.49955986       2.07975799       0.88479623
H        1.11405418       1.94199874      -0.77952488
H        2.21497690      -0.17391872       0.54248124
H        0.56068735      -2.71832882      -0.41948992
H       -1.00975397       0.66365652       1.76164388
H       -2.26071587      -0.10311857       0.77574275
H       -1.26446007       1.02761455      -1.23620731
H        0.79258072      -0.68849060      -1.83450609
15
Frame=8 idx=008429 GeodesicLength=0.6998037712778044 rxn_smarts="[C:1]1([H:8])([H:9])[C@@:2]2([H:10])[C@@:3]3([H:11])[O:4][C:5]([H:12])([H:13])[C@:6]1([H:14])[C@@:7]23[H:15]>>[C:1]1([H:8])([H:9])[C@@:2]2([H:10])[C:5]([H:12])([H:13])[C@:6]1([H:14])[C@:7]2([C:3](=[O:4])[H:11])[H:15]"
C        0.63254031       1.39131771       0.03263712
C        1.15161751       0.01014326       0.30717265
C        0.01867129      -1.80237518      -0.13849737
O       -0.98950939      -1.90853852       0.58755989
C       -1.19547248       0.17846389       0.81408411
C       -0.61709220       0.63285394      -0.46516918
C        0.34696696      -0.53993633      -0.85414147
H        0.50437069       2.07501126       0.87918180
H        1.12876609       1.92983721      -0.78086629
H        2.18967924      -0.19149292       0.56017877
H        0.58353845      -2.70558635      -0.40692055
H       -1.02127952       0.68264715       1.75908468
H       -2.24212010      -0.11403836       0.78335337
H       -1.27687524       1.03864794      -1.23101086
H        0.78619839      -0.67695471      -1.84664667
15
Frame=9 idx=008429 GeodesicLength=0.7874234220031898 rxn_smarts="[C:1]1([H:8])([H:9])[C@@:2]2([H:10])[C@@:3]3([H:11])[O:4][C:5]([H:12])([H:13])[C@:6]1([H:14])[C@@:7]23[H:15]>>[C:1]1([H:8])([H:9])[C@@:2]2([H:10])[C:5]([H:12])([H:13])[C@:6]1([H:14])[C@:7]2([C:3](=[O:4])[H:11])[H:15]"
C        0.63205231       1.38699243       0.02669942
C        1.13026550      -0.00336295       0.31185912
C        0.03134718      -1.79293618      -0.13703587
O       -0.98820215      -1.90395481       0.58239449
C       -1.17623937       0.16807909       0.81979772
C       -0.62124766       0.63451297      -0.47192236
C        0.33494668      -0.53584431      -0.86830693
H        0.50928957       2.06993882       0.87396092
H        1.14306201       1.91771600      -0.78195381
H        2.16509775      -0.20806966       0.57679662
H        0.60561696      -2.69273714      -0.39454944
H       -1.03318548       0.70052342       1.75562653
H       -2.22369264      -0.12453242       0.79031931
H       -1.28868657       1.04924675      -1.22560229
H        0.77957591      -0.66557200      -1.85808343
15
Frame=10 idx=008429 GeodesicLength=0.8750715826183074 rxn_smarts="[C:1]1([H:8])([H:9])[C@@:2]2([H:10])[C@@:3]3([H:11])[O:4][C:5]([H:12])([H:13])[C@:6]1([H:14])[C@@:7]23[H:15]>>[C:1]1([H:8])([H:9])[C@@:2]2([H:10])[C:5]([H:12])([H:13])[C@:6]1([H:14])[C@:7]2([C:3](=[O:4])[H:11])[H:15]"
C        0.63164571       1.38267749       0.02090774
C        1.10961439      -0.01633049       0.31609660
C        0.04353792      -1.78350414      -0.13562241
O       -0.98682013      -1.89925053       0.57785161
C       -1.15719194       0.15813818       0.82544324
C       -0.62523772       0.63598309      -0.47835757
C        0.32315738      -0.53203860      -0.88167355
H        0.51430462       2.06458899       0.86909125
H        1.15697538       1.90562691      -0.78281579
H        2.14126206      -0.22373584       0.59244214
H        0.62692720      -2.67978395      -0.38236259
H       -1.04549415       0.71708650       1.75120942
H       -2.20545845      -0.13458684       0.79666451
H       -1.29994083       1.05947991      -1.21997459
H        0.77271857      -0.65435068      -1.86890002
15
Frame=11 idx=008429 GeodesicLength=0.962741569468112 rxn_smarts="[C:1]1([H:8])([H:9])[C@@:2]2([H:10])[C@@:3]3([H:11])[O:4][C:5]([H:12])([H:13])[C@:6]1([H:14])[C@@:7]23[H:15]>>[C:1]1([H:8])([H:9])[C@@:2]2([H:10])[C:5]([H:12])([H:13])[C@:6]1([H:14])[C@:7]2([C:3](=[O:4])[H:11])[H:15]"
C        0.63130948       1.37838871       0.01524809
C        1.08963969      -0.02878320       0.31993035
C        0.05527242      -1.77407956      -0.13424485
O       -0.98537301      -1.89440582       0.57393651
C       -1.13836500       0.14863962       0.83100111
C       -0.62907170       0.63729103      -0.48450974
C        0.31157240      -0.52849420      -0.89430300
H        0.51938324       2.05899611       0.86454042
H        1.17052564       1.89358007      -0.78347635
H        2.11815957      -0.23854383       0.60721433
H        0.64750829      -2.66673997      -0.37033906
H       -1.05807207       0.73225887       1.74593332
H       -2.18745630      -0.14419552       0.80239975
H       -1.31065153       1.06938795      -1.21417947
H        0.76561891      -0.64330026      -1.87915141
15
Frame=12 idx=008429 GeodesicLength=1.050448683203682 rxn_smarts="[C:1]1([H:8])([H:9])[C@@:2]2([H:10])[C@@:3]3([H:11])[O:4][C:5]([H:12])([H:13])[C@:6]1([H:14])[C@@:7]23[H:15]>>[C:1]1([H:8])([H:9])[C@@:2]2([H:10])[C:5]([H:12])([H:13])[C@:6]1([H:14])[C@:7]2([C:3](=[O:4])[H:11])[H:15]"
C        0.63102964       1.37413900       0.00970367
C        1.07031170      -0.04074402       0.32340820
C        0.06658871      -1.76466277      -0.13289273
O       -0.98387274      -1.88941416       0.57063984
C       -1.11979045       0.13956895       0.83644849
C       -0.63276005       0.63845933      -0.49041590
C        0.30016924      -0.52518964      -0.90625417
H        0.52449047       2.05319933       0.86026603
H        1.18373676       1.88157270      -0.78396136
H        2.09575556      -0.25254320       0.62121234
H        0.66738967      -2.65361827      -0.35847955
H       -1.07078405       0.74601536       1.73993144
H       -2.16971876      -0.15336315       0.80753827
H       -1.32083262       1.07900232      -1.20826282
H        0.75828691      -0.63242179      -1.88888175
15
Frame=13 idx=008429 GeodesicLength=1.1381780971087934 rxn_smarts="[C:1]1([H:8])([H:9])[C@@:2]2([H:10])[C@@:3]3([H:11])[O:4][C:5]([H:12])([H:13])[C@:6]1([H:14])[C@@:7]23[H:15]>>[C:1]1([H:8])([H:9])[C@@:2]2([H:10])[C:5]([H:12])([H:13])[C@:6]1([H:14])[C@:7]2([C:3](=[O:4])[H:11])[H:15]"
C        0.63079666       1.36993728       0.00426346
C        1.05160182      -0.05223685       0.32656770
C        0.07750637      -1.75525381      -0.13156505
O       -0.98233048      -1.88427173       0.56794623
C       -1.10149390       0.13091917       0.84177132
C       -0.63631108       0.63950813      -0.49610737
C        0.28892712      -0.52210972      -0.91757641
H        0.52960059       2.04722744       0.85623680
H        1.19662605       1.86960735      -0.78428808
H        2.07402649      -0.26577866       0.63451828
H        0.68661976      -2.64042325      -0.34676617
H       -1.08351615       0.75832614       1.73330789
H       -2.15227549      -0.16208432       0.81209381
H       -1.33049693       1.08835199      -1.20227146
H        0.75071916      -0.62171916      -1.89813095
15
Frame=14 idx=008429 GeodesicLength=1.225948254159736 rxn_smarts="[C:1]1([H:8])([H:9])[C@@:2]2([H:10])[C@@:3]3([H:11])[O:4][C:5]([H:12])([H:13])[C@:6]1([H:14])[C@@:7]23[H:15]>>[C:1]1([H:8])([H:9])[C@@:2]2([H:10])[C:5]([H:12])([H:13])[C@:6]1([H:14])[C@:7]2([C:3](=[O:4])[H:11])[H:15]"
C        0.63060145       1.36579279      -0.00108738
C        1.03347665      -0.06328337       0.32945097
C        0.08805985      -1.74585390      -0.13025844
O       -0.98076001      -1.87898220       0.56583298
C       -1.08349475       0.12266958       0.84695260
C       -0.63973165       0.64045388      -0.50161536
C        0.27783371      -0.51923715      -0.92831536
H        0.53468771       2.04111624       0.85241409
H        1.20921327       1.85767822      -0.78447540
H        2.05292948      -0.27829198       0.64721041
H        0.70522637      -2.62716491      -0.33520628
H       -1.09616653       0.76920694       1.72619602
H       -2.13514584      -0.17036677       0.81608184
H       -1.33966002       1.09745540      -1.19624740
H        0.74293030      -0.61119278      -1.90693328
15
Frame=15 idx=008429 GeodesicLength=1.313760173017781 rxn_smarts="[C:1]1([H:8])([H:9])[C@@:2]2([H:10])[C@@:3]3([H:11])[O:4][C:5]([H:12])([H:13])[C@:6]1([H:14])[C@@:7]23[H:15]>>[C:1]1([H:8])([H:9])[C@@:2]2([H:10])[C:5]([H:12])([H:13])[C@:6]1([H:14])[C@:7]2([C:3](=[O:4])[H:11])[H:15]"
C        0.63043473       1.36171070      -0.00636061
C        1.01590157      -0.07390590       0.33209313
C        0.09827575      -1.73646801      -0.12897784
O       -0.97917606      -1.87355838       0.56426303
C       -1.06581081       0.11479700       0.85198034
C       -0.64302921       0.64130931      -0.50696798
C        0.26687835      -0.51655847      -0.93851403
H        0.53973054       2.03489374       0.84876513
H        1.22151600       1.84578160      -0.78453894
H        2.03242719      -0.29012575       0.65936413
H        0.72325240      -2.61385115      -0.32380143
H       -1.10864390       0.77870553       1.71871581
H       -2.11834948      -0.17821731       0.81952655
H       -1.34834110       1.10632967      -1.19022677
H        0.73493403      -0.60084259      -1.91532052
15
Frame=16 idx=008429 GeodesicLength=1.4016132999400623 rxn_smarts="[C:1]1([H:8])([H:9])[C@@:2]2([H:10])[C@@:3]3([H:11])[O:4][C:5]([H:12])([H:13])[C@:6]1([H:14])[C@@:7]23[H:15]>>[C:1]1([H:8])([H:9])[C@@:2]2([H:10])[C:5]([H:12])([H:13])[C@:6]1([H:14])[C@:7]2([C:3](=[O:4])[H:11])[H:15]"
C        0.63029020       1.35769374      -0.01156477
C        0.99884607      -0.08412721       0.33452512
C        0.10818028      -1.72709903      -0.12772632
O       -0.97758989      -1.86801369       0.56320142
C       -1.04845578       0.10727926       0.85684591
C       -0.64620983       0.64208502      -0.51218952
C        0.25605240      -0.51406249      -0.94821020
H        0.54471200       2.02858353       0.84526278
H        1.23354813       1.83391249      -0.78448773
H        2.01248438      -0.30131772       0.67103899
H        0.74073615      -2.60048592      -0.31255199
H       -1.12087449       0.78687369       1.71097267
H       -2.10190265      -0.18564274       0.82244920
H       -1.35655869       1.11498973      -1.18424453
H        0.72674172      -0.59066866      -1.92332102
