11
Frame=0 idx=006227 GeodesicLength=0.0 rxn_smarts="[O:1]=[C:2]1[C:3]([H:7])([H:8])[C:4]([H:9])=[C:5]([H:10])[N:6]1[H:11]>>[O:1]1[C@:2]2([C:3]([H:7])([H:8])[C:4]([H:9])=[C:5]2[H:10])[N:6]1[H:11]"
O       -0.34484867       1.83755927      -0.83683251
C       -0.09049685       0.77669753      -0.14573292
C       -1.03746096      -0.52250603      -0.15811331
C        0.22162741      -1.32275868      -0.09607685
C        1.06145073      -0.29134662      -0.24557254
N        0.14257755       1.23264956       1.14129639
H       -1.53248907      -0.54093698      -1.12596997
H       -1.75696424      -0.60976372       0.65651823
H        0.38710542      -2.37876565       0.07467374
H        2.13769910      -0.17825541      -0.26808582
H        0.81179963       1.99742671       1.00389555
11
Frame=1 idx=006227 GeodesicLength=0.06521013400279871 rxn_smarts="[O:1]=[C:2]1[C:3]([H:7])([H:8])[C:4]([H:9])=[C:5]([H:10])[N:6]1[H:11]>>[O:1]1[C@:2]2([C:3]([H:7])([H:8])[C:4]([H:9])=[C:5]2[H:10])[N:6]1[H:11]"
O       -0.37053657       1.85367261      -0.81699810
C       -0.10520375       0.77800742      -0.15659305
C       -1.03881906      -0.52349790      -0.16250447
C        0.22282833      -1.32088346      -0.08986316
C        1.06555561      -0.28988697      -0.22160612
N        0.15729963       1.23408796       1.12398217
H       -1.53306658      -0.55260406      -1.13078215
H       -1.76023156      -0.60935255       0.65055688
H        0.38746233      -2.37922601       0.06517552
H        2.14207157      -0.18357279      -0.25428000
H        0.83264006       1.99325575       0.99291247
11
Frame=2 idx=006227 GeodesicLength=0.13040423567998213 rxn_smarts="[O:1]=[C:2]1[C:3]([H:7])([H:8])[C:4]([H:9])=[C:5]([H:10])[N:6]1[H:11]>>[O:1]1[C@:2]2([C:3]([H:7])([H:8])[C:4]([H:9])=[C:5]2[H:10])[N:6]1[H:11]"
O       -0.39647107       1.86912926      -0.79619619
C       -0.11927695       0.77930986      -0.16743427
C       -1.03997278      -0.52425174      -0.16690723
C        0.22400311      -1.31896648      -0.08357570
C        1.06951011      -0.28859650      -0.19784321
N        0.17191945       1.23563261       1.10625823
H       -1.53346154      -0.56400977      -1.13547863
H       -1.76335711      -0.60877769       0.64451504
H        0.38796377      -2.37943076       0.05540619
H        2.14625727      -0.18954691      -0.24027406
H        0.85288575       1.98950814       0.98152984
11
Frame=3 idx=006227 GeodesicLength=0.19557241453552682 rxn_smarts="[O:1]=[C:2]1[C:3]([H:7])([H:8])[C:4]([H:9])=[C:5]([H:10])[N:6]1[H:11]>>[O:1]1[C@:2]2([C:3]([H:7])([H:8])[C:4]([H:9])=[C:5]2[H:10])[N:6]1[H:11]"
O       -0.42259615       1.88389742      -0.77442802
C       -0.13278645       0.78062539      -0.17827621
C       -1.04094340      -0.52477912      -0.17134293
C        0.22514470      -1.31700227      -0.07727927
C        1.07330836      -0.28746091      -0.17437765
N        0.18646431       1.23724316       1.08813105
H       -1.53371865      -0.57514349      -1.14007098
H       -1.76633535      -0.60806976       0.63839313
H        0.38861885      -2.37933663       0.04549000
H        2.15025184      -0.19610962      -0.22599655
H        0.87259193       1.98613585       0.96975743
11
Frame=4 idx=006227 GeodesicLength=0.26070389761840307 rxn_smarts="[O:1]=[C:2]1[C:3]([H:7])([H:8])[C:4]([H:9])=[C:5]([H:10])[N:6]1[H:11]>>[O:1]1[C@:2]2([C:3]([H:7])([H:8])[C:4]([H:9])=[C:5]2[H:10])[N:6]1[H:11]"
O       -0.44884148       1.89795146      -0.75168713
C       -0.14580678       0.78197566      -0.18912856
C       -1.04175236      -0.52509218      -0.17583953
C        0.22624875      -1.31498390      -0.07105096
C        1.07694661      -0.28646170      -0.15129486
N        0.20095344       1.23887524       1.06961058
H       -1.53387876      -0.58598949      -1.14458103
H       -1.76916441      -0.60726723       0.63218180
H        0.38943089      -2.37890518       0.03559790
H        2.15405560      -0.20318536      -0.21142324
H        0.89180850       1.98308268       0.95761502
11
Frame=5 idx=006227 GeodesicLength=0.32578704247171164 rxn_smarts="[O:1]=[C:2]1[C:3]([H:7])([H:8])[C:4]([H:9])=[C:5]([H:10])[N:6]1[H:11]>>[O:1]1[C@:2]2([C:3]([H:7])([H:8])[C:4]([H:9])=[C:5]2[H:10])[N:6]1[H:11]"
O       -0.47512245       1.91126813      -0.72797081
C       -0.15841460       0.78338257      -0.19999144
C       -1.04242001      -0.52520309      -0.18042339
C        0.22731442      -1.31290302      -0.06496353
C        1.08042429      -0.28557731      -0.12865809
N        0.21539465       1.24049244       1.05070772
H       -1.53397627      -0.59653230      -1.14903267
H       -1.77184571      -0.60641048       0.62587005
H        0.39039660      -2.37811463       0.02589885
H        2.15767195      -0.21069725      -0.19656335
H        0.91057714       1.98029496       0.94512667
11
Frame=6 idx=006227 GeodesicLength=0.3908126596020005 rxn_smarts="[O:1]=[C:2]1[C:3]([H:7])([H:8])[C:4]([H:9])=[C:5]([H:10])[N:6]1[H:11]>>[O:1]1[C@:2]2([C:3]([H:7])([H:8])[C:4]([H:9])=[C:5]2[H:10])[N:6]1[H:11]"
O       -0.50133977       1.92381580      -0.70328457
C       -0.17068610       0.78486654      -0.21085793
C       -1.04296420      -0.52512379      -0.18511504
C        0.22834293      -1.31074918      -0.05908740
C        1.08374273      -0.28478612      -0.10650599
N        0.22978758       1.24207006       1.03143010
H       -1.53404222      -0.60675716      -1.15344462
H       -1.77437705      -0.60553973       0.61945254
H        0.39150633      -2.37695505       0.01653324
H        2.16109912      -0.21856727      -0.18143376
H        0.92893066       1.97772592       0.93231344
11
Frame=7 idx=006227 GeodesicLength=0.4557717448168851 rxn_smarts="[O:1]=[C:2]1[C:3]([H:7])([H:8])[C:4]([H:9])=[C:5]([H:10])[N:6]1[H:11]>>[O:1]1[C@:2]2([C:3]([H:7])([H:8])[C:4]([H:9])=[C:5]2[H:10])[N:6]1[H:11]"
O       -0.52738621       1.93559002      -0.67764237
C       -0.18270013       0.78645223      -0.22171452
C       -1.04340838      -0.52486771      -0.18993831
C        0.22934229      -1.30851770      -0.05349348
C        1.08691176      -0.28406817      -0.08486507
N        0.24412142       1.24358213       1.01179218
H       -1.53410906      -0.61664325      -1.15784701
H       -1.77677300      -0.60470528       0.61292021
H        0.39275073      -2.37543815       0.00767374
H        2.16435316      -0.22671371      -0.16609726
H        0.94689741       1.97532960       0.91921188
11
Frame=8 idx=006227 GeodesicLength=0.5206325603972702 rxn_smarts="[O:1]=[C:2]1[C:3]([H:7])([H:8])[C:4]([H:9])=[C:5]([H:10])[N:6]1[H:11]>>[O:1]1[C@:2]2([C:3]([H:7])([H:8])[C:4]([H:9])=[C:5]2[H:10])[N:6]1[H:11]"
O       -0.55313091       1.94655435      -0.65105545
C       -0.19452809       0.78814494      -0.23253009
C       -1.04375758      -0.52444996      -0.19491661
C        0.23030877      -1.30618224      -0.04824543
C        1.08991014      -0.28338985      -0.06373871
N        0.25838780       1.24501062       0.99180352
H       -1.53418110      -0.62619218      -1.16226313
H       -1.77901262      -0.60394750       0.60624639
H        0.39409869      -2.37355642      -0.00052195
H        2.16740815      -0.23504895      -0.15064696
H        0.96449676       1.97305718       0.90586841
11
Frame=9 idx=006227 GeodesicLength=0.5854239943360693 rxn_smarts="[O:1]=[C:2]1[C:3]([H:7])([H:8])[C:4]([H:9])=[C:5]([H:10])[N:6]1[H:11]>>[O:1]1[C@:2]2([C:3]([H:7])([H:8])[C:4]([H:9])=[C:5]2[H:10])[N:6]1[H:11]"
O       -0.57851666       1.95670520      -0.62355412
C       -0.20624491       0.78997671      -0.24329444
C       -1.04403817      -0.52388080      -0.20003759
C        0.23125634      -1.30374802      -0.04333150
C        1.09276443      -0.28274884      -0.04310250
N        0.27258173       1.24638146       0.97145241
H       -1.53427878      -0.63541038      -1.16669835
H       -1.78113576      -0.60329042       0.59945701
H        0.39554809      -2.37136021      -0.00811288
H        2.17029165      -0.24352712      -0.13503132
H        0.98177202       1.97090243       0.89225329
11
Frame=10 idx=006227 GeodesicLength=0.6501576524696111 rxn_smarts="[O:1]=[C:2]1[C:3]([H:7])([H:8])[C:4]([H:9])=[C:5]([H:10])[N:6]1[H:11]>>[O:1]1[C@:2]2([C:3]([H:7])([H:8])[C:4]([H:9])=[C:5]2[H:10])[N:6]1[H:11]"
O       -0.60348075       1.96599981      -0.59518511
C       -0.21791235       0.79194703      -0.25398812
C       -1.04426322      -0.52317019      -0.20526761
C        0.23218196      -1.30119088      -0.03871490
C        1.09546581      -0.28211505      -0.02288829
N        0.28670420       1.24773756       0.95069610
H       -1.53441443      -0.64433003      -1.17111199
H       -1.78314153      -0.60274041       0.59258902
H        0.39709342      -2.36886725      -0.01530777
H        2.17300826      -0.25213785      -0.11911828
H        0.99875862       1.96886726       0.87829694
11
Frame=11 idx=006227 GeodesicLength=0.7148444599884362 rxn_smarts="[O:1]=[C:2]1[C:3]([H:7])([H:8])[C:4]([H:9])=[C:5]([H:10])[N:6]1[H:11]>>[O:1]1[C@:2]2([C:3]([H:7])([H:8])[C:4]([H:9])=[C:5]2[H:10])[N:6]1[H:11]"
O       -0.62796894       1.97442749      -0.56597945
C       -0.22959509       0.79407579      -0.26459580
C       -1.04445323      -0.52233391      -0.21058979
C        0.23308774      -1.29851661      -0.03438598
C        1.09801703      -0.28148440      -0.00303783
N        0.30076660       1.24912325       0.92950576
H       -1.53461537      -0.65297791      -1.17549782
H       -1.78504083      -0.60231995       0.58567064
H        0.39873311      -2.36610908      -0.02223159
H        2.17556461      -0.26085234      -0.10281182
H        1.01550437       1.96696767       0.86395368
11
Frame=12 idx=006227 GeodesicLength=0.7794842395785286 rxn_smarts="[O:1]=[C:2]1[C:3]([H:7])([H:8])[C:4]([H:9])=[C:5]([H:10])[N:6]1[H:11]>>[O:1]1[C@:2]2([C:3]([H:7])([H:8])[C:4]([H:9])=[C:5]2[H:10])[N:6]1[H:11]"
O       -0.65191650       1.98198367      -0.53593948
C       -0.24136029       0.79636099      -0.27509220
C       -1.04461515      -0.52138094      -0.21599871
C        0.23397245      -1.29570343      -0.03034887
C        1.10039835      -0.28083982       0.01647274
N        0.31477075       1.25053955       0.90784725
H       -1.53487253      -0.66136832      -1.17985787
H       -1.78683218      -0.60204792       0.57870946
H        0.40046771      -2.36307107      -0.02891216
H        2.17794686      -0.26963936      -0.08606304
H        1.03204054       1.96516666       0.84918287
11
Frame=13 idx=006227 GeodesicLength=0.8440824781015119 rxn_smarts="[O:1]=[C:2]1[C:3]([H:7])([H:8])[C:4]([H:9])=[C:5]([H:10])[N:6]1[H:11]>>[O:1]1[C@:2]2([C:3]([H:7])([H:8])[C:4]([H:9])=[C:5]2[H:10])[N:6]1[H:11]"
O       -0.67522603       1.98864304      -0.50511167
C       -0.25324703       0.79880939      -0.28545256
C       -1.04476310      -0.52032168      -0.22148670
C        0.23484599      -1.29274898      -0.02661172
C        1.10261876      -0.28017021       0.03575748
N        0.32869195       1.25199975       0.88569610
H       -1.53519122      -0.66949315      -1.18418716
H       -1.78853891      -0.60194366       0.57171142
H        0.40229105      -2.35977600      -0.03537636
H        2.18014898      -0.27845260      -0.06893062
H        1.04836955       1.96345409       0.83399178
11
Frame=14 idx=006227 GeodesicLength=0.9086356083282862 rxn_smarts="[O:1]=[C:2]1[C:3]([H:7])([H:8])[C:4]([H:9])=[C:5]([H:10])[N:6]1[H:11]>>[O:1]1[C@:2]2([C:3]([H:7])([H:8])[C:4]([H:9])=[C:5]2[H:10])[N:6]1[H:11]"
O       -0.69783953       1.99442655      -0.47348405
C       -0.26532113       0.80142566      -0.29565546
C       -1.04490553      -0.51916883      -0.22706138
C        0.23571319      -1.28964388      -0.02320224
C        1.10466086      -0.27946757       0.05484175
N        0.34254265       1.25350466       0.86301679
H       -1.53557945      -0.67736945      -1.18850673
H       -1.79015377      -0.60203556       0.56467387
H        0.40420155      -2.35622404      -0.04159932
H        2.18215387      -0.28725265      -0.05138323
H        1.06452728       1.96180511       0.81836000
11
Frame=15 idx=006227 GeodesicLength=0.9731618536076732 rxn_smarts="[O:1]=[C:2]1[C:3]([H:7])([H:8])[C:4]([H:9])=[C:5]([H:10])[N:6]1[H:11]>>[O:1]1[C@:2]2([C:3]([H:7])([H:8])[C:4]([H:9])=[C:5]2[H:10])[N:6]1[H:11]"
O       -0.71974499       1.99932353      -0.44105990
C       -0.27762753       0.80422021      -0.30568850
C       -1.04506326      -0.51793196      -0.23269547
C        0.23657716      -1.28639005      -0.02009649
C        1.10652059      -0.27872594       0.07383495
N        0.35634296       1.25510096       0.83973293
H       -1.53606130      -0.68501570      -1.19278980
H       -1.79169876      -0.60233799       0.55762736
H        0.40622126      -2.35243260      -0.04779329
H        2.18397081      -0.29605303      -0.03325621
H        1.08056306       1.96024256       0.80218442
11
Frame=16 idx=006227 GeodesicLength=1.0376743192839677 rxn_smarts="[O:1]=[C:2]1[C:3]([H:7])([H:8])[C:4]([H:9])=[C:5]([H:10])[N:6]1[H:11]>>[O:1]1[C@:2]2([C:3]([H:7])([H:8])[C:4]([H:9])=[C:5]2[H:10])[N:6]1[H:11]"
O       -0.74090643       2.00331918      -0.40782510
C       -0.29021608       0.80719063      -0.31553865
C       -1.04524662      -0.51661790      -0.23836701
C        0.23743874      -1.28297627      -0.01728808
C        1.10817254      -0.27793872       0.09283150
N        0.37010963       1.25681340       0.81575978
H       -1.53664829      -0.69244934      -1.19701363
H       -1.79317227      -0.60286028       0.55060174
H        0.40837740      -2.34838434      -0.05413112
H        2.18557636      -0.30485785      -0.01439055
H        1.09651501       1.95876150       0.78536113
