19
Frame=0 idx=010187 GeodesicLength=0.0 rxn_smarts="[C:1]([C:2]([C@@:3]1([C:4]([H:13])([H:14])[H:15])[C:5]([H:16])([H:17])[C@:6]1([O:7][H:19])[H:18])([H:11])[H:12])([H:8])([H:9])[H:10]>>[C:1]([C:2]([O:7][H:19])([H:11])[H:12])([H:8])([H:9])[H:10].[C:3]1([C:4]([H:13])([H:14])[H:15])=[C:6]([H:18])[C:5]1([H:16])[H:17]"
C        2.07969679       0.42694666      -0.43180729
C        1.41071047       0.59409148       0.88736816
C       -0.62087752      -0.64091544      -0.05094610
C       -0.86159622      -1.45515575      -1.28447080
C       -1.61607775      -0.52388676       1.06397024
C       -1.19878616       0.63682038       0.22535967
O       -0.24236035       1.55349881       0.87033942
H        1.61822932       1.04270210      -1.20748935
H        2.01138990      -0.60581357      -0.76723250
H        3.12662379       0.74802633      -0.36136924
H        1.75738538       1.44519179       1.46883461
H        1.24825555      -0.28731216       1.48437152
H       -0.27901274      -1.08099347      -2.13271144
H       -0.57332165      -2.49807371      -1.12879613
H       -1.91766234      -1.46451507      -1.59732609
H       -1.28165516      -0.55573056       2.09969572
H       -2.64426040      -0.87086821       0.93723215
H       -1.89641904       1.20500101      -0.38394922
H       -0.12026183       2.33098621       0.30892668
19
Frame=1 idx=010187 GeodesicLength=0.1057716349922979 rxn_smarts="[C:1]([C:2]([C@@:3]1([C:4]([H:13])([H:14])[H:15])[C:5]([H:16])([H:17])[C@:6]1([O:7][H:19])[H:18])([H:11])[H:12])([H:8])([H:9])[H:10]>>[C:1]([C:2]([O:7][H:19])([H:11])[H:12])([H:8])([H:9])[H:10].[C:3]1([C:4]([H:13])([H:14])[H:15])=[C:6]([H:18])[C:5]1([H:16])[H:17]"
C        2.07944693       0.43951813      -0.43667155
C        1.39796221       0.57460043       0.88116881
C       -0.63095668      -0.63177154      -0.05364968
C       -0.85779262      -1.46712857      -1.27492623
C       -1.62513805      -0.51347096       1.06289769
C       -1.21702847       0.64236949       0.21233009
O       -0.23620783       1.57233449       0.87351279
H        1.64409886       1.09640628      -1.19353562
H        1.99385434      -0.57584306      -0.81805407
H        3.13415191       0.72657611      -0.34348593
H        1.75634880       1.40112819       1.49121900
H        1.25564553      -0.32094248       1.46369188
H       -0.29538600      -1.08692160      -2.13373395
H       -0.53557534      -2.49789320      -1.10519789
H       -1.91542896      -1.51103674      -1.57702583
H       -1.28581171      -0.52984806       2.09723817
H       -2.65021993      -0.87078266       0.94388306
H       -1.91282876       1.20423934      -0.40427632
H       -0.09913423       2.34846641       0.31461560
19
Frame=2 idx=010187 GeodesicLength=0.21165054455775933 rxn_smarts="[C:1]([C:2]([C@@:3]1([C:4]([H:13])([H:14])[H:15])[C:5]([H:16])([H:17])[C@:6]1([O:7][H:19])[H:18])([H:11])[H:12])([H:8])([H:9])[H:10]>>[C:1]([C:2]([O:7][H:19])([H:11])[H:12])([H:8])([H:9])[H:10].[C:3]1([C:4]([H:13])([H:14])[H:15])=[C:6]([H:18])[C:5]1([H:16])[H:17]"
C        2.07915695       0.45197604      -0.44113758
C        1.38473014       0.55527829       0.87430624
C       -0.64126313      -0.62247302      -0.05663721
C       -0.85357156      -1.47895180      -1.26511102
C       -1.63411846      -0.50299634       1.06179846
C       -1.23593127       0.64774414       0.19891315
O       -0.22958564       1.59132579       0.87686673
H        1.67221264       1.15024986      -1.17651018
H        1.97487458      -0.54290241      -0.86899757
H        3.14090859       0.70174336      -0.32640447
H        1.75415431       1.35649678       1.51184608
H        1.26279801      -0.35403286       1.44167402
H       -0.31207645      -1.09357626      -2.13469337
H       -0.49721657      -2.49608033      -1.08164518
H       -1.91176602      -1.55781702      -1.55553343
H       -1.28970123      -0.50371968       2.09443460
H       -2.65581961      -0.87107402       0.95093153
H       -1.93027533       1.20284474      -0.42482335
H       -0.07750995       2.36596476       0.32072254
19
Frame=3 idx=010187 GeodesicLength=0.31761953706886026 rxn_smarts="[C:1]([C:2]([C@@:3]1([C:4]([H:13])([H:14])[H:15])[C:5]([H:16])([H:17])[C@:6]1([O:7][H:19])[H:18])([H:11])[H:12])([H:8])([H:9])[H:10]>>[C:1]([C:2]([O:7][H:19])([H:11])[H:12])([H:8])([H:9])[H:10].[C:3]1([C:4]([H:13])([H:14])[H:15])=[C:6]([H:18])[C:5]1([H:16])[H:17]"
C        2.07875003       0.46424535      -0.44525109
C        1.37103950       0.53615647       0.86678608
C       -0.65180397      -0.61302386      -0.05988073
C       -0.84882296      -1.49058268      -1.25500652
C       -1.64306810      -0.49245828       1.06065692
C       -1.25551992       0.65292080       0.18511109
O       -0.22245219       1.61044853       0.88047923
H        1.70257726       1.20388370      -1.15622699
H        1.95435299      -0.50680255      -0.91992784
H        3.14662371       0.67337921      -0.31056146
H        1.75087922       1.31143327       1.53065293
H        1.26963738      -0.38646635       1.41839124
H       -0.32894405      -1.10095246      -2.13552475
H       -0.45816043      -2.49254405      -1.05817288
H       -1.90649132      -1.60479638      -1.53284520
H       -1.29341209      -0.47733691       2.09126846
H       -2.66107677      -0.87174066       0.95833034
H       -1.94876342       1.20077030      -0.44562434
H       -0.05534486       2.38346657       0.32734550
19
Frame=4 idx=010187 GeodesicLength=0.42370385873802896 rxn_smarts="[C:1]([C:2]([C@@:3]1([C:4]([H:13])([H:14])[H:15])[C:5]([H:16])([H:17])[C@:6]1([O:7][H:19])[H:18])([H:11])[H:12])([H:8])([H:9])[H:10]>>[C:1]([C:2]([O:7][H:19])([H:11])[H:12])([H:8])([H:9])[H:10].[C:3]1([C:4]([H:13])([H:14])[H:15])=[C:6]([H:18])[C:5]1([H:16])[H:17]"
C        2.07814935       0.47624902      -0.44907312
C        1.35692592       0.51726608       0.85862924
C       -0.66259017      -0.60342427      -0.06335191
C       -0.84342592      -1.50198128      -1.24460362
C       -1.65205594      -0.48183921       1.05946218
C       -1.27583599       0.65788179       0.17092181
O       -0.21477269       1.62968355       0.88445296
H        1.73518315       1.25691114      -1.13252775
H        1.93219092      -0.46735157      -0.97069225
H        3.15102286       0.64135620      -0.29645516
H        1.74663598       1.26606788       1.54760849
H        1.27610314      -0.41813644       1.39394460
H       -0.34581610      -1.10905899      -2.13617441
H       -0.41829563      -2.48718805      -1.03480714
H       -1.89941757      -1.65192079      -1.50897497
H       -1.29704927      -0.45067832       2.08773934
H       -2.66603638      -0.87276649       0.96603051
H       -1.96831803       1.19797054      -0.46673126
H       -0.03259762       2.40095920       0.33460244
19
Frame=5 idx=010187 GeodesicLength=0.5298206470498542 rxn_smarts="[C:1]([C:2]([C@@:3]1([C:4]([H:13])([H:14])[H:15])[C:5]([H:16])([H:17])[C@:6]1([O:7][H:19])[H:18])([H:11])[H:12])([H:8])([H:9])[H:10]>>[C:1]([C:2]([O:7][H:19])([H:11])[H:12])([H:8])([H:9])[H:10].[C:3]1([C:4]([H:13])([H:14])[H:15])=[C:6]([H:18])[C:5]1([H:16])[H:17]"
C        2.07722279       0.48786412      -0.45264908
C        1.34237430       0.49861851       0.84984598
C       -0.67362459      -0.59365912      -0.06701328
C       -0.83723161      -1.51303409      -1.23386270
C       -1.66109601      -0.47114628       1.05818508
C       -1.29688807       0.66260328       0.15635468
O       -0.20647686       1.64900629       0.88882149
H        1.76995168       1.30874532      -1.10534683
H        1.90833299      -0.42440817      -1.02101819
H        3.15369802       0.60570569      -0.28455704
H        1.74147358       1.22050301       1.56265556
H        1.28207540      -0.44896416       1.36843517
H       -0.36250596      -1.11779504      -2.13652446
H       -0.37758526      -2.47986339      -1.01154990
H       -1.89028406      -1.69904529      -1.48393789
H       -1.30068768      -0.42372270       2.08379712
H       -2.67064101      -0.87420133       0.97397369
H       -1.98892521       1.19439392      -0.48812760
H       -0.00918243       2.41839945       0.34251820
19
Frame=6 idx=010187 GeodesicLength=0.6360545572562115 rxn_smarts="[C:1]([C:2]([C@@:3]1([C:4]([H:13])([H:14])[H:15])[C:5]([H:16])([H:17])[C@:6]1([O:7][H:19])[H:18])([H:11])[H:12])([H:8])([H:9])[H:10]>>[C:1]([C:2]([O:7][H:19])([H:11])[H:12])([H:8])([H:9])[H:10].[C:3]1([C:4]([H:13])([H:14])[H:15])=[C:6]([H:18])[C:5]1([H:16])[H:17]"
C        2.07587254       0.49900109      -0.45607656
C        1.32745201       0.48025515       0.84050283
C       -0.68491256      -0.58373533      -0.07082623
C       -0.83009652      -1.52370055      -1.22279516
C       -1.67029746      -0.46034685       1.05681981
C       -1.31872416       0.66706830       0.14139968
O       -0.19753051       1.66839853       0.89375947
H        1.80672117       1.35884641      -1.07464698
H        1.88270919      -0.37786625      -1.07063789
H        3.15435559       0.56643224      -0.27550694
H        1.73559753       1.17489975       1.57579518
H        1.28752047      -0.47884505       1.34204715
H       -0.37872112      -1.12719391      -2.13652742
H       -0.33592467      -2.47048849      -0.98843175
H       -1.87889531      -1.74605688      -1.45781878
H       -1.30447530      -0.39643987       2.07946746
H       -2.67499428      -0.87599677       0.98209252
H       -2.01060782       1.18999112      -0.50990485
H        0.01495122       2.43577738       0.35128845
19
Frame=7 idx=010187 GeodesicLength=0.742393432311464 rxn_smarts="[C:1]([C:2]([C@@:3]1([C:4]([H:13])([H:14])[H:15])[C:5]([H:16])([H:17])[C@:6]1([O:7][H:19])[H:18])([H:11])[H:12])([H:8])([H:9])[H:10]>>[C:1]([C:2]([O:7][H:19])([H:11])[H:12])([H:8])([H:9])[H:10].[C:3]1([C:4]([H:13])([H:14])[H:15])=[C:6]([H:18])[C:5]1([H:16])[H:17]"
C        2.07394740       0.50954434      -0.45942639
C        1.31216041       0.46219279       0.83064722
C       -0.69645304      -0.57364045      -0.07474986
C       -0.82185949      -1.53386545      -1.21137124
C       -1.67970723      -0.44943189       1.05533427
C       -1.34135419       0.67125023       0.12604719
O       -0.18785789       1.68782936       0.89935352
H        1.84530181       1.40656058      -1.04048102
H        1.85525828      -0.32766014      -1.11917792
H        3.15258201       0.52365392      -0.26986080
H        1.72913192       1.12937240       1.58699970
H        1.29233097      -0.50771253       1.31494174
H       -0.39421065      -1.13715154      -2.13607520
H       -0.29324050      -2.45890556      -0.96546180
H       -1.86499581      -1.79280598      -1.43064362
H       -1.30852129      -0.36879605       2.07470673
H       -2.67908796      -0.87816953       0.99031708
H       -2.03333660       1.18469563      -0.53209919
H        0.03991186       2.45303989       0.36099958
19
Frame=8 idx=010187 GeodesicLength=0.8489553455610586 rxn_smarts="[C:1]([C:2]([C@@:3]1([C:4]([H:13])([H:14])[H:15])[C:5]([H:16])([H:17])[C@:6]1([O:7][H:19])[H:18])([H:11])[H:12])([H:8])([H:9])[H:10]>>[C:1]([C:2]([O:7][H:19])([H:11])[H:12])([H:8])([H:9])[H:10].[C:3]1([C:4]([H:13])([H:14])[H:15])=[C:6]([H:18])[C:5]1([H:16])[H:17]"
C        2.07133560       0.51938840      -0.46278771
C        1.29652218       0.44444482       0.82036389
C       -0.70826008      -0.56336254      -0.07875512
C       -0.81238148      -1.54343919      -1.19959535
C       -1.68940904      -0.43837868       1.05372054
C       -1.36482058       0.67512893       0.11027668
O       -0.17738586       1.70728814       0.90573327
H        1.88551572       1.45122749      -1.00301412
H        1.82597029      -0.27376990      -1.16627054
H        3.14802798       0.47762444      -0.26817888
H        1.72224185       1.08402214       1.59632035
H        1.29644456      -0.53553553       1.28731218
H       -0.40868400      -1.14761911      -2.13511798
H       -0.24949119      -2.44499047      -0.94262990
H       -1.84837949      -1.83915381      -1.40249286
H       -1.31295921      -0.34074134       2.06952746
H       -2.68297204      -0.88072696       0.99860491
H       -2.05713222       1.17844018      -0.55477874
H        0.06581701       2.47015298       0.37176191
19
Frame=9 idx=010187 GeodesicLength=0.9557003731772263 rxn_smarts="[C:1]([C:2]([C@@:3]1([C:4]([H:13])([H:14])[H:15])[C:5]([H:16])([H:17])[C@:6]1([O:7][H:19])[H:18])([H:11])[H:12])([H:8])([H:9])[H:10]>>[C:1]([C:2]([O:7][H:19])([H:11])[H:12])([H:8])([H:9])[H:10].[C:3]1([C:4]([H:13])([H:14])[H:15])=[C:6]([H:18])[C:5]1([H:16])[H:17]"
C        2.06785827       0.52833197      -0.46622467
C        1.28051037       0.42700073       0.80972613
C       -0.72031762      -0.55285160      -0.08280999
C       -0.80147001      -1.55219774      -1.18746671
C       -1.69937715      -0.42717023       1.05195147
C       -1.38918348       0.67869119       0.09410769
O       -0.16606965       1.72675505       0.91293936
H        1.92691941       1.49196097      -0.96263187
H        1.79501811      -0.21644112      -1.21136070
H        3.14025454       0.42865003      -0.27084081
H        1.71501218       1.03894432       1.60374698
H        1.29978967      -0.56228283       1.25936995
H       -0.42186726      -1.15835025      -2.13355489
H       -0.20461773      -2.42852318      -0.91996728
H       -1.82874903      -1.88480325      -1.37347225
H       -1.31781939      -0.31219007       2.06387042
H       -2.68651206      -0.88371751       1.00691525
H       -2.08208330       1.17117023      -0.57787941
H        0.09270413       2.48702329       0.38358133
19
Frame=10 idx=010187 GeodesicLength=1.0628238342526306 rxn_smarts="[C:1]([C:2]([C@@:3]1([C:4]([H:13])([H:14])[H:15])[C:5]([H:16])([H:17])[C@:6]1([O:7][H:19])[H:18])([H:11])[H:12])([H:8])([H:9])[H:10]>>[C:1]([C:2]([O:7][H:19])([H:11])[H:12])([H:8])([H:9])[H:10].[C:3]1([C:4]([H:13])([H:14])[H:15])=[C:6]([H:18])[C:5]1([H:16])[H:17]"
C        2.06340824       0.53630806      -0.46984086
C        1.26417462       0.40988636       0.79886347
C       -0.73262478      -0.54212080      -0.08689417
C       -0.78905744      -1.56006345      -1.17501311
C       -1.70971913      -0.41580511       1.05001414
C       -1.41443802       0.68188491       0.07749174
O       -0.15377923       1.74619785       0.92118560
H        1.96906534       1.52809852      -0.91983719
H        1.76255899      -0.15602028      -1.25391152
H        3.12899504       0.37746882      -0.27833160
H        1.70768912       0.99427213       1.60935540
H        1.30232038      -0.58793651       1.23135953
H       -0.43333388      -1.16933100      -2.13133812
H       -0.15879995      -2.40948227      -0.89744151
H       -1.80603255      -1.92947459      -1.34377389
H       -1.32326300      -0.28314276       2.05775072
H       -2.68981721      -0.88713333       1.01520586
H       -2.10813284       1.16278444      -0.60151401
H        0.12078629       2.50360902       0.39666954
19
Frame=11 idx=010187 GeodesicLength=1.1704369808830553 rxn_smarts="[C:1]([C:2]([C@@:3]1([C:4]([H:13])([H:14])[H:15])[C:5]([H:16])([H:17])[C@:6]1([O:7][H:19])[H:18])([H:11])[H:12])([H:8])([H:9])[H:10]>>[C:1]([C:2]([O:7][H:19])([H:11])[H:12])([H:8])([H:9])[H:10].[C:3]1([C:4]([H:13])([H:14])[H:15])=[C:6]([H:18])[C:5]1([H:16])[H:17]"
C        2.05786995       0.54319671      -0.47368382
C        1.24749283       0.39309462       0.78787852
C       -0.74516515      -0.53114130      -0.09100605
C       -0.77505468      -1.56685699      -1.16225585
C       -1.72041644      -0.40427719       1.04788582
C       -1.44062902       0.68466414       0.06039952
O       -0.14043129       1.76559219       0.93053947
H        2.01152140       1.55900159      -0.87521813
H        1.72882980      -0.09293544      -1.29340504
H        3.11397406       0.32462771      -0.29080624
H        1.70036889       0.95007833       1.61320804
H        1.30398413      -0.61250905       1.20348979
H       -0.44285061      -1.18035759      -2.12842967
H       -0.11211533      -2.38773974      -0.87507223
H       -1.78009634      -1.97289087      -1.31350129
H       -1.32932332      -0.25352020       2.05112173
H       -2.69278188      -0.89101991       1.02348496
H       -2.13534636       1.15317424      -0.62568449
H        0.15016937       2.51981875       0.41105498
19
Frame=12 idx=010187 GeodesicLength=1.2787691000929218 rxn_smarts="[C:1]([C:2]([C@@:3]1([C:4]([H:13])([H:14])[H:15])[C:5]([H:16])([H:17])[C@:6]1([O:7][H:19])[H:18])([H:11])[H:12])([H:8])([H:9])[H:10]>>[C:1]([C:2]([O:7][H:19])([H:11])[H:12])([H:8])([H:9])[H:10].[C:3]1([C:4]([H:13])([H:14])[H:15])=[C:6]([H:18])[C:5]1([H:16])[H:17]"
C        2.05120611       0.54893260      -0.47781850
C        1.23048700       0.37662336       0.77688983
C       -0.75794241      -0.51990417      -0.09516097
C       -0.75944917      -1.57246010      -1.14924565
C       -1.73150420      -0.39257714       1.04557148
C       -1.46783454       0.68696241       0.04277708
O       -0.12593029       1.78491195       0.94112772
H        2.05386713       1.58420320      -0.82945733
H        1.69417576      -0.02774071      -1.32941923
H        3.09510487       0.27087657      -0.30830683
H        1.69320288       0.90642603       1.61542902
H        1.30479540      -0.63602939       1.17596362
H       -0.45015351      -1.19131644      -2.12484676
H       -0.06475294      -2.36328005      -0.85285206
H       -1.75095686      -2.01476082      -1.28283205
H       -1.33606643      -0.22324372       2.04399333
H       -2.69539825      -0.89539279       1.03180792
H       -2.16383817       1.14219679      -0.65044732
H        0.18098764       2.53557242       0.42682672
19
Frame=13 idx=010187 GeodesicLength=1.387911120072293 rxn_smarts="[C:1]([C:2]([C@@:3]1([C:4]([H:13])([H:14])[H:15])[C:5]([H:16])([H:17])[C@:6]1([O:7][H:19])[H:18])([H:11])[H:12])([H:8])([H:9])[H:10]>>[C:1]([C:2]([O:7][H:19])([H:11])[H:12])([H:8])([H:9])[H:10].[C:3]1([C:4]([H:13])([H:14])[H:15])=[C:6]([H:18])[C:5]1([H:16])[H:17]"
C        2.04333891       0.55340374      -0.48220608
C        1.21306356       0.36046857       0.76597169
C       -0.77091673      -0.50835807      -0.09940367
C       -0.74225621      -1.57662964      -1.13605027
C       -1.74280913      -0.38073869       1.04304315
C       -1.49609503       0.68870340       0.02462834
O       -0.11016752       1.80416373       0.95290935
H        2.09552071       1.60326531      -0.78340601
H        1.65913879       0.03877074      -1.36148532
H        3.07221056       0.21687675      -0.33040512
H        1.68612452       0.86337434       1.61607247
H        1.30466256      -0.65852666       1.14893429
H       -0.45515077      -1.20189004      -2.12058287
H       -0.01698963      -2.33602152      -0.83084810
H       -1.71858731      -2.05473519      -1.25192246
H       -1.34338698      -0.19220478       2.03625054
H       -2.69731144      -0.90040737       1.04026543
H       -2.19371991       1.12970337      -0.67564271
H        0.21333104       2.55078201       0.44387736
19
Frame=14 idx=010187 GeodesicLength=1.498108144157612 rxn_smarts="[C:1]([C:2]([C@@:3]1([C:4]([H:13])([H:14])[H:15])[C:5]([H:16])([H:17])[C@:6]1([O:7][H:19])[H:18])([H:11])[H:12])([H:8])([H:9])[H:10]>>[C:1]([C:2]([O:7][H:19])([H:11])[H:12])([H:8])([H:9])[H:10].[C:3]1([C:4]([H:13])([H:14])[H:15])=[C:6]([H:18])[C:5]1([H:16])[H:17]"
C        2.03434627       0.55667038      -0.48689988
C        1.19531017       0.34464457       0.75524301
C       -0.78407396      -0.49654920      -0.10377221
C       -0.72363327      -1.57935459      -1.12273780
C       -1.75439085      -0.36875736       1.04031235
C       -1.52547887       0.68974726       0.00583374
O       -0.09302373       1.82327767       0.96608882
H        2.13603391       1.61618106      -0.73781342
H        1.62418070       0.10579415      -1.38939206
H        3.04558914       0.16367053      -0.35683165
H        1.67933635       0.82097362       1.61530186
H        1.30370530      -0.68003056       1.12255776
H       -0.45762075      -1.21208699      -2.11570321
H        0.03075506      -2.30620548      -0.80903212
H       -1.68332868      -2.09246485      -1.22101427
H       -1.35135442      -0.16035498       2.02791872
H       -2.69860367      -0.90597541       1.04896457
H       -2.22510047       1.11546446      -0.70142165
H        0.24735176       2.56535574       0.46239741
19
Frame=15 idx=010187 GeodesicLength=1.609545901227447 rxn_smarts="[C:1]([C:2]([C@@:3]1([C:4]([H:13])([H:14])[H:15])[C:5]([H:16])([H:17])[C@:6]1([O:7][H:19])[H:18])([H:11])[H:12])([H:8])([H:9])[H:10]>>[C:1]([C:2]([O:7][H:19])([H:11])[H:12])([H:8])([H:9])[H:10].[C:3]1([C:4]([H:13])([H:14])[H:15])=[C:6]([H:18])[C:5]1([H:16])[H:17]"
C        2.02426631       0.55876330      -0.49183654
C        1.17717895       0.32916721       0.74477063
C       -0.79737981      -0.48447508      -0.10832738
C       -0.70370309      -1.58053163      -1.10936950
C       -1.76612544      -0.35664400       1.03736334
C       -1.55605834       0.68994464      -0.01368735
O       -0.07438618       1.84224409       0.98064902
H        2.17522983       1.62306272      -0.69318687
H        1.58964141       0.17283630      -1.41305607
H        3.01530425       0.11163427      -0.38705179
H        1.67278326       0.77924904       1.61322952
H        1.30190476      -0.70056887       1.09692637
H       -0.45764725      -1.22172861      -2.11027272
H        0.07823112      -2.27390476      -0.78749077
H       -1.64534646      -2.12777005      -1.19016342
H       -1.35990615      -0.12753019       2.01889921
H       -2.69901019      -0.91215810       1.05806480
H       -2.25812391       1.09920058      -0.72777169
H        0.28314692       2.57920915       0.48231122
19
Frame=16 idx=010187 GeodesicLength=1.7224129276485614 rxn_smarts="[C:1]([C:2]([C@@:3]1([C:4]([H:13])([H:14])[H:15])[C:5]([H:16])([H:17])[C@:6]1([O:7][H:19])[H:18])([H:11])[H:12])([H:8])([H:9])[H:10]>>[C:1]([C:2]([O:7][H:19])([H:11])[H:12])([H:8])([H:9])[H:10].[C:3]1([C:4]([H:13])([H:14])[H:15])=[C:6]([H:18])[C:5]1([H:16])[H:17]"
C        2.01318422       0.55974785      -0.49695631
C        1.15865910       0.31406080       0.73462415
C       -0.81080416      -0.47214651      -0.11313737
C       -0.68264394      -1.58010442      -1.09602302
C       -1.77791836      -0.34439823       1.03418929
C       -1.58792606       0.68910923      -0.03403834
O       -0.05412993       1.86104145       0.99661541
H        2.21296963       1.62414065      -0.64996944
H        1.55587435       0.23941563      -1.43249759
H        2.98155210       0.06121116      -0.42048450
H        1.66644785       0.73822122       1.60998658
H        1.29929383      -0.72016085       1.07212000
H       -0.45532254      -1.23069891      -2.10438267
H        0.12513956      -2.23927997      -0.76630844
H       -1.60491749      -2.16046821      -1.15946236
H       -1.36900196      -0.09356160       2.00910540
H       -2.69831693      -0.91896325       1.06775246
H       -2.29296182       1.08057902      -0.75471714
H        0.32082257       2.59225495       0.50358392
