16
Frame=0 idx=010362 GeodesicLength=0.0 rxn_smarts="[C:1]([C:2]1([C:3]([H:11])([H:12])[H:13])[C:4]([H:14])([H:15])[O:5]/[C:6]1=[N:7]\[H:16])([H:8])([H:9])[H:10]>>[C:1]([C:2][C:4]([O:5]/[C:6]([C:3]([H:11])([H:12])[H:13])=[N:7]\[H:16])([H:14])[H:15])([H:8])([H:9])[H:10]"
C       -1.41150914      -0.29637109       1.25415051
C       -0.27154335       0.37079437       0.62055590
C        0.34455770      -1.14972925      -0.92708947
C       -0.30890028       1.47330480      -0.35051619
O        0.97578377       1.23902401      -0.89284910
C        1.22354286      -0.01061227      -0.22526085
N        2.38511317      -0.40080124       0.13593128
H       -1.69305869       0.39400508       2.06184346
H       -2.29664384      -0.43509368       0.62285981
H       -1.12697259      -1.23391354       1.73002279
H        0.46762263      -2.06015334      -0.34839892
H       -0.71066185      -0.96543897      -1.12592133
H        0.84484846      -1.23797203      -1.88997447
H       -0.34375121       2.40935902       0.22812255
H       -1.08768818       1.51033002      -1.12269904
H        3.00926054       0.39326806       0.22922313
16
Frame=1 idx=010362 GeodesicLength=0.08443572443652163 rxn_smarts="[C:1]([C:2]1([C:3]([H:11])([H:12])[H:13])[C:4]([H:14])([H:15])[O:5]/[C:6]1=[N:7]\[H:16])([H:8])([H:9])[H:10]>>[C:1]([C:2][C:4]([O:5]/[C:6]([C:3]([H:11])([H:12])[H:13])=[N:7]\[H:16])([H:14])[H:15])([H:8])([H:9])[H:10]"
C       -1.42493220      -0.28537758       1.26357179
C       -0.27980705       0.34942280       0.60797868
C        0.34644300      -1.15154971      -0.93423547
C       -0.30972577       1.46263619      -0.35231203
O        0.99076061       1.25015880      -0.86939991
C        1.24116136      -0.00644023      -0.22503035
N        2.40079165      -0.39532560       0.13865538
H       -1.67442943       0.41052086       2.07684015
H       -2.32131731      -0.40043544       0.64350632
H       -1.15595229      -1.23061628       1.73349735
H        0.49637664      -2.07109662      -0.37637834
H       -0.71643327      -1.00166744      -1.12079855
H        0.82472952      -1.21082858      -1.91080458
H       -0.37004020       2.39507283       0.22887200
H       -1.07238861       1.48695682      -1.14079811
H        3.02476336       0.39856917       0.23683566
16
Frame=2 idx=010362 GeodesicLength=0.16859471743768722 rxn_smarts="[C:1]([C:2]1([C:3]([H:11])([H:12])[H:13])[C:4]([H:14])([H:15])[O:5]/[C:6]1=[N:7]\[H:16])([H:8])([H:9])[H:10]>>[C:1]([C:2][C:4]([O:5]/[C:6]([C:3]([H:11])([H:12])[H:13])=[N:7]\[H:16])([H:14])[H:15])([H:8])([H:9])[H:10]"
C       -1.43803289      -0.27392224       1.27290067
C       -0.28857250       0.32748995       0.59490337
C        0.34814250      -1.15364032      -0.94174925
C       -0.31071689       1.45169350      -0.35407162
O        1.00494665       1.26106390      -0.84495475
C        1.25844075      -0.00231382      -0.22449040
N        2.41614172      -0.38969073       0.14189188
H       -1.65459696       0.42676239       2.09128622
H       -2.34509815      -0.36460375       0.66443491
H       -1.18558989      -1.22662525       1.73717044
H        0.52594884      -2.08168250      -0.40621354
H       -0.72142451      -1.03963710      -1.11530134
H        0.80348814      -1.18296648      -1.93094870
H       -0.39631975       2.38023704       0.22900183
H       -1.05658966       1.46373670      -1.15868202
H        3.03983261       0.40409869       0.24482230
16
Frame=3 idx=010362 GeodesicLength=0.2524260536196674 rxn_smarts="[C:1]([C:2]1([C:3]([H:11])([H:12])[H:13])[C:4]([H:14])([H:15])[O:5]/[C:6]1=[N:7]\[H:16])([H:8])([H:9])[H:10]>>[C:1]([C:2][C:4]([O:5]/[C:6]([C:3]([H:11])([H:12])[H:13])=[N:7]\[H:16])([H:14])[H:15])([H:8])([H:9])[H:10]"
C       -1.45074087      -0.26203098       1.28208156
C       -0.29787057       0.30502664       0.58133761
C        0.34961927      -1.15604999      -0.94958411
C       -0.31187790       1.44049895      -0.35577431
O        1.01825279       1.27166806      -0.81951494
C        1.27532174       0.00176249      -0.22362655
N        2.43110166      -0.38389383       0.14566588
H       -1.63358417       0.44264447       2.10506674
H       -2.36782993      -0.32771006       0.68554223
H       -1.21580109      -1.22189359       1.74105101
H        0.55623964      -2.09178381      -0.43784611
H       -0.72549167      -1.07928739      -1.10949455
H        0.78103260      -1.15449114      -1.95026270
H       -0.42250709       2.36490694       0.22851940
H       -1.04028846       1.44077254      -1.17627898
H        3.05442404       0.40986070       0.25311781
16
Frame=4 idx=010362 GeodesicLength=0.3358985377848648 rxn_smarts="[C:1]([C:2]1([C:3]([H:11])([H:12])[H:13])[C:4]([H:14])([H:15])[O:5]/[C:6]1=[N:7]\[H:16])([H:8])([H:9])[H:10]>>[C:1]([C:2][C:4]([O:5]/[C:6]([C:3]([H:11])([H:12])[H:13])=[N:7]\[H:16])([H:14])[H:15])([H:8])([H:9])[H:10]"
C       -1.46298509      -0.24974110       1.29105511
C       -0.30772871       0.28208112       0.56729331
C        0.35083779      -1.15882022      -0.95769038
C       -0.31321004       1.42908271      -0.35740204
O        1.03059697       1.28189777      -0.79309392
C        1.29175581       0.00578820      -0.22241386
N        2.44561614      -0.37793472       0.15001145
H       -1.61141896       0.45806142       2.11807878
H       -2.38937355      -0.28986120       0.70673631
H       -1.24648738      -1.21639173       1.74512573
H        0.58713015      -2.10126809      -0.47119695
H       -0.72849696      -1.12051787      -1.10345781
H        0.75728490      -1.12555164      -1.96859813
H       -0.44852342       2.34915211       0.22742640
H       -1.02350572       1.41816731      -1.19352556
H        3.06850805       0.41585594       0.26165156
16
Frame=5 idx=010362 GeodesicLength=0.41898041830533805 rxn_smarts="[C:1]([C:2]1([C:3]([H:11])([H:12])[H:13])[C:4]([H:14])([H:15])[O:5]/[C:6]1=[N:7]\[H:16])([H:8])([H:9])[H:10]>>[C:1]([C:2][C:4]([O:5]/[C:6]([C:3]([H:11])([H:12])[H:13])=[N:7]\[H:16])([H:14])[H:15])([H:8])([H:9])[H:10]"
C       -1.47469683      -0.23709294       1.29975142
C       -0.31817610       0.25871106       0.55278434
C        0.35177149      -1.16198663      -0.96601505
C       -0.31470724       1.41747997      -0.35893216
O        1.04189471       1.29168376      -0.76571861
C        1.30769708       0.00976599      -0.22082477
N        2.45963308      -0.37180880       0.15496867
H       -1.58812622       0.47289696       2.13022986
H       -2.40961150      -0.25115784       0.72792840
H       -1.27753111      -1.21010625       1.74933622
H        0.61849260      -2.10999954      -0.50616987
H       -0.73031775      -1.16321240      -1.09727321
H        0.73216491      -1.09634095      -1.98578079
H       -0.47428790       2.33304909       0.22573357
H       -1.00626427       1.39602813      -1.21036251
H        3.08206505       0.42209040       0.27034450
16
Frame=6 idx=010362 GeodesicLength=0.5016660289996533 rxn_smarts="[C:1]([C:2]1([C:3]([H:11])([H:12])[H:13])[C:4]([H:14])([H:15])[O:5]/[C:6]1=[N:7]\[H:16])([H:8])([H:9])[H:10]>>[C:1]([C:2][C:4]([O:5]/[C:6]([C:3]([H:11])([H:12])[H:13])=[N:7]\[H:16])([H:14])[H:15])([H:8])([H:9])[H:10]"
C       -1.48581331      -0.22413870       1.30812454
C       -0.32922624       0.23499613       0.53783608
C        0.35238474      -1.16556903      -0.97449574
C       -0.31636860       1.40573278      -0.36035123
O        1.05211055       1.30096724      -0.73744655
C        1.32311198       0.01370591      -0.21883395
N        2.47310553      -0.36551595       0.16058573
H       -1.56378741       0.48702581       2.14146230
H       -2.42842812      -0.21172881       0.74903438
H       -1.30881629      -1.20303364       1.75364848
H        0.65016238      -2.11782127      -0.54267427
H       -0.73083717      -1.20720325      -1.09103661
H        0.70563783      -1.06710712      -2.00167114
H       -0.49973169       2.31669027       0.22345011
H       -0.98860094       1.37444285      -1.22673971
H        3.09509677       0.42855677       0.27910759
16
Frame=7 idx=010362 GeodesicLength=0.5839571900104816 rxn_smarts="[C:1]([C:2]1([C:3]([H:11])([H:12])[H:13])[C:4]([H:14])([H:15])[O:5]/[C:6]1=[N:7]\[H:16])([H:8])([H:9])[H:10]>>[C:1]([C:2][C:4]([O:5]/[C:6]([C:3]([H:11])([H:12])[H:13])=[N:7]\[H:16])([H:14])[H:15])([H:8])([H:9])[H:10]"
C       -1.49627685      -0.21093262       1.31613391
C       -0.34089333       0.21102033       0.52246765
C        0.35264352      -1.16957936      -0.98307608
C       -0.31818843       1.39388374      -0.36165336
O        1.06120797       1.30969858      -0.70832728
C        1.33796900       0.01762178      -0.21641190
N        2.48598553      -0.35905763       0.16691466
H       -1.53847747       0.50032947       2.15173473
H       -2.44572229      -0.17170744       0.76998305
H       -1.34021013      -1.19517660       1.75801070
H        0.68195492      -2.12457463      -0.58061315
H       -0.72995488      -1.25231560      -1.08484755
H        0.67769085      -1.03810942      -2.01613044
H       -0.52479092       2.30016689       0.22057877
H       -0.97054509       1.35348854      -1.24261864
H        3.10760763       0.43524398       0.28785492
16
Frame=8 idx=010362 GeodesicLength=0.6658557738689093 rxn_smarts="[C:1]([C:2]1([C:3]([H:11])([H:12])[H:13])[C:4]([H:14])([H:15])[O:5]/[C:6]1=[N:7]\[H:16])([H:8])([H:9])[H:10]>>[C:1]([C:2][C:4]([O:5]/[C:6]([C:3]([H:11])([H:12])[H:13])=[N:7]\[H:16])([H:14])[H:15])([H:8])([H:9])[H:10]"
C       -1.50604513      -0.19753460       1.32373776
C       -0.35318230       0.18688499       0.50670818
C        0.35251277      -1.17401655      -0.99168909
C       -0.32015502       1.38198236      -0.36283310
O        1.06915728       1.31783398      -0.67842512
C        1.35224275       0.02153042      -0.21352544
N        2.49823232      -0.35243440       0.17399730
H       -1.51227817       0.51268132       2.16101591
H       -2.46141965      -0.13121623       0.79071156
H       -1.37159312      -1.18655948       1.76236706
H        0.71370619      -2.13011007      -0.61989024
H       -0.72758960      -1.29835969      -1.07880076
H        0.64832084      -1.00963601      -2.02902305
H       -0.54940460       2.28357631       0.21712228
H       -0.95211820       1.33323646      -1.25796782
H        3.11961365       0.44214119       0.29649460
16
Frame=9 idx=010362 GeodesicLength=0.7475309805239796 rxn_smarts="[C:1]([C:2]1([C:3]([H:11])([H:12])[H:13])[C:4]([H:14])([H:15])[O:5]/[C:6]1=[N:7]\[H:16])([H:8])([H:9])[H:10]>>[C:1]([C:2][C:4]([O:5]/[C:6]([C:3]([H:11])([H:12])[H:13])=[N:7]\[H:16])([H:14])[H:15])([H:8])([H:9])[H:10]"
C       -1.51516579      -0.18397410       1.33091847
C       -0.36610291       0.16268550       0.49059529
C        0.35193272      -1.17883160      -1.00029965
C       -0.32227263       1.37008599      -0.36385452
O        1.07606661       1.32534346      -0.64792941
C        1.36597324       0.02544865      -0.21014332
N        2.50986789      -0.34565016       0.18190304
H       -1.48538558       0.52400965       2.16936239
H       -2.47564149      -0.09024818       0.81130977
H       -1.40295682      -1.17722293       1.76653916
H        0.74563135      -2.13439761      -0.66045483
H       -0.72386002      -1.34513335      -1.07284565
H        0.61772713      -0.98201521      -2.04038547
H       -0.57351926       2.26701616       0.21317070
H       -0.93349947       1.31371225      -1.27275242
H        3.13120503       0.44917147       0.30486644
16
Frame=10 idx=010362 GeodesicLength=0.8288708824607192 rxn_smarts="[C:1]([C:2]1([C:3]([H:11])([H:12])[H:13])[C:4]([H:14])([H:15])[O:5]/[C:6]1=[N:7]\[H:16])([H:8])([H:9])[H:10]>>[C:1]([C:2][C:4]([O:5]/[C:6]([C:3]([H:11])([H:12])[H:13])=[N:7]\[H:16])([H:14])[H:15])([H:8])([H:9])[H:10]"
C       -1.52351816      -0.17034539       1.33762206
C       -0.37964811       0.13850870       0.47415476
C        0.35091828      -1.18405880      -1.00884234
C       -0.32452132       1.35821145      -0.36475027
O        1.08184451       1.33220612      -0.61674650
C        1.37911912       0.02938676      -0.20625423
N        2.52084751      -0.33871247       0.19061056
H       -1.45779127       0.53421997       2.17667014
H       -2.48816276      -0.04906506       0.83158889
H       -1.43407410      -1.16719648       1.77057188
H        0.77714878      -2.13722171      -0.70200376
H       -0.71864480      -1.39244942      -1.06716179
H        0.58583409      -0.95536098      -2.05007908
H       -0.59713402       2.25054376       0.20865801
H       -0.91457340       1.29497321      -1.28698353
H        3.14235567       0.45636033       0.31294521
16
Frame=11 idx=010362 GeodesicLength=0.9099018620562844 rxn_smarts="[C:1]([C:2]1([C:3]([H:11])([H:12])[H:13])[C:4]([H:14])([H:15])[O:5]/[C:6]1=[N:7]\[H:16])([H:8])([H:9])[H:10]>>[C:1]([C:2][C:4]([O:5]/[C:6]([C:3]([H:11])([H:12])[H:13])=[N:7]\[H:16])([H:14])[H:15])([H:8])([H:9])[H:10]"
C       -1.53108605      -0.15671849       1.34383018
C       -0.39380064       0.11445207       0.45741949
C        0.34944807      -1.18967179      -1.01727369
C       -0.32688108       1.34639742      -0.36552128
O        1.08652307       1.33841943      -0.58492227
C        1.39168849       0.03336833      -0.20183600
N        2.53116720      -0.33162351       0.20013021
H       -1.42963754       0.54325408       2.18292564
H       -2.49894855      -0.00785513       0.85148373
H       -1.46481416      -1.15651302       1.77444129
H        0.80800821      -2.13845323      -0.74434495
H       -0.71195329      -1.44010203      -1.06180360
H        0.55274570      -0.92988613      -2.05808966
H       -0.62022102       2.23423199       0.20359385
H       -0.89535667       1.27703614      -1.30065353
H        3.15311826       0.46366386       0.32062058
16
Frame=12 idx=010362 GeodesicLength=0.9906664742353934 rxn_smarts="[C:1]([C:2]1([C:3]([H:11])([H:12])[H:13])[C:4]([H:14])([H:15])[O:5]/[C:6]1=[N:7]\[H:16])([H:8])([H:9])[H:10]>>[C:1]([C:2][C:4]([O:5]/[C:6]([C:3]([H:11])([H:12])[H:13])=[N:7]\[H:16])([H:14])[H:15])([H:8])([H:9])[H:10]"
C       -1.53785846      -0.14316200       1.34953026
C       -0.40854429       0.09060031       0.44042074
C        0.34749972      -1.19564303      -1.02556397
C       -0.32932763       1.33467927      -0.36616880
O        1.09012830       1.34397217      -0.55250331
C        1.40370223       0.03740741      -0.19688032
N        2.54084766      -0.32438943       0.21044255
H       -1.40107542       0.55108999       2.18811863
H       -2.50799075       0.03321593       0.87093076
H       -1.49506038      -1.14521424       1.77813776
H        0.83802148      -2.13801127      -0.78728423
H       -0.70383585      -1.48788504      -1.05682224
H        0.51856094      -0.90578992      -2.06442811
H       -0.64274619       2.21814016       0.19800328
H       -0.87585812       1.25992206      -1.31374909
H        3.16353678       0.47106763       0.32781610
16
Frame=13 idx=010362 GeodesicLength=1.0712753263333692 rxn_smarts="[C:1]([C:2]1([C:3]([H:11])([H:12])[H:13])[C:4]([H:14])([H:15])[O:5]/[C:6]1=[N:7]\[H:16])([H:8])([H:9])[H:10]>>[C:1]([C:2][C:4]([O:5]/[C:6]([C:3]([H:11])([H:12])[H:13])=[N:7]\[H:16])([H:14])[H:15])([H:8])([H:9])[H:10]"
C       -1.54388437      -0.12970823       1.35472287
C       -0.42385393       0.06703318       0.42320119
C        0.34501967      -1.20192259      -1.03368478
C       -0.33184127       1.32308941      -0.36668239
O        1.09274906       1.34886327      -0.51958515
C        1.41520295       0.04151501      -0.19138140
N        2.54993439      -0.31702053       0.22151879
H       -1.37229486       0.55774675       2.19228495
H       -2.51537917       0.07405819       0.88994521
H       -1.52476501      -1.13332739       1.78162803
H        0.86726326      -2.13588433      -0.83077674
H       -0.69441685      -1.53565360      -1.05215913
H        0.48342417      -0.88325322      -2.06919086
H       -0.66468156       2.20232780       0.19193694
H       -0.85613845       1.24361592      -1.32625868
H        3.17366197       0.47852036       0.33448115
16
Frame=14 idx=010362 GeodesicLength=1.1516894040360144 rxn_smarts="[C:1]([C:2]1([C:3]([H:11])([H:12])[H:13])[C:4]([H:14])([H:15])[O:5]/[C:6]1=[N:7]\[H:16])([H:8])([H:9])[H:10]>>[C:1]([C:2][C:4]([O:5]/[C:6]([C:3]([H:11])([H:12])[H:13])=[N:7]\[H:16])([H:14])[H:15])([H:8])([H:9])[H:10]"
C       -1.54911293      -0.11644329       1.35938523
C       -0.43969373       0.04383309       0.40578657
C        0.34202070      -1.20849737      -1.04161813
C       -0.33438774       1.31164876      -0.36708368
O        1.09438355       1.35309793      -0.48613942
C        1.42621173       0.04570817      -0.18535828
N        2.55846291      -0.30951467       0.23327316
H       -1.34337239       0.56321867       2.19537702
H       -2.52104323       0.11441341       0.90838166
H       -1.55372739      -1.12090955       1.78495949
H        0.89524996      -2.13197424      -0.87448336
H       -0.68370908      -1.58319341      -1.04791668
H        0.44737427      -0.86238327      -2.07239502
H       -0.68601765       2.18682864       0.18537699
H       -0.83613443       1.22812469      -1.33819615
H        3.18349544       0.48604245       0.34065059
16
Frame=15 idx=010362 GeodesicLength=1.2319541904864686 rxn_smarts="[C:1]([C:2]1([C:3]([H:11])([H:12])[H:13])[C:4]([H:14])([H:15])[O:5]/[C:6]1=[N:7]\[H:16])([H:8])([H:9])[H:10]>>[C:1]([C:2][C:4]([O:5]/[C:6]([C:3]([H:11])([H:12])[H:13])=[N:7]\[H:16])([H:14])[H:15])([H:8])([H:9])[H:10]"
C       -1.55355964      -0.10341942       1.36352473
C       -0.45601989       0.02106290       0.38820427
C        0.33847235      -1.21532433      -1.04937059
C       -0.33693055       1.30037801      -0.36737709
O        1.09509158       1.35668149      -0.45221765
C        1.43677345       0.04999860      -0.17884097
N        2.56649452      -0.30187535       0.24560466
H       -1.31446341       0.56756934       2.19740730
H       -2.52503310       0.15409331       0.92618011
H       -1.58183565      -1.10800069       1.78816978
H        0.92182264      -2.12629592      -0.91819445
H       -0.67181622      -1.63032704      -1.04411656
H        0.41052682      -0.84326969      -2.07414174
H       -0.70672430       2.17167276       0.17835653
H       -0.81585319       1.21342905      -1.34955378
H        3.19305457       0.49362700       0.34636544
16
Frame=16 idx=010362 GeodesicLength=1.3121299298317624 rxn_smarts="[C:1]([C:2]1([C:3]([H:11])([H:12])[H:13])[C:4]([H:14])([H:15])[O:5]/[C:6]1=[N:7]\[H:16])([H:8])([H:9])[H:10]>>[C:1]([C:2][C:4]([O:5]/[C:6]([C:3]([H:11])([H:12])[H:13])=[N:7]\[H:16])([H:14])[H:15])([H:8])([H:9])[H:10]"
C       -1.55723953      -0.09067307       1.36716095
C       -0.47279673      -0.00122339       0.37047203
C        0.33434039      -1.22236936      -1.05695185
C       -0.33943573       1.28928874      -0.36757964
O        1.09493326       1.35961269      -0.41787124
C        1.44693683       0.05439098      -0.17187011
N        2.57409942      -0.29411147       0.25840124
H       -1.28567183       0.57087649       2.19839986
H       -2.52742254       0.19296628       0.94331671
H       -1.60897950      -1.09464202       1.79131369
H        0.94689653      -2.11889108      -0.96179078
H       -0.65887592      -1.67691828      -1.04075966
H        0.37297369      -0.82597718      -2.07456426
H       -0.72678346       2.15688049       0.17088992
H       -0.79529254       1.19949640      -1.36034365
H        3.20231768       0.50129379       0.35177680
