14
Frame=0 idx=002144 GeodesicLength=0.0 rxn_smarts="[C:1]([C@@:2]1([H:10])[C:3]([H:11])([H:12])[C@@:4]2([H:13])[O:5][C@@:6]12[H:14])([H:7])([H:8])[H:9]>>[C:1]([C:2]([C@@:6]1([H:14])[C@:4]([C:3][H:11])([H:13])[O:5]1)([H:10])[H:12])([H:7])([H:8])[H:9]"
C        1.64189239       0.50553331       0.37080714
C        0.40708098       0.44032256      -0.49339865
C       -0.75802381      -1.49826271      -0.81022524
C       -1.63513245      -0.64523309       0.02444798
O       -1.12311949      -0.24378016       1.31100149
C       -0.92810522       0.61029883       0.20239176
H        1.55059393      -0.17374761       1.21771822
H        1.76654351       1.51802029       0.76398267
H        2.53922985       0.25047628      -0.19349987
H        0.45910817       1.09770870      -1.36588795
H       -0.15325626      -2.14424008      -0.15323949
H        0.33228206      -0.56796316      -1.10371117
H       -2.71284477      -0.74027364      -0.04580958
H       -1.38624889       1.59114042       0.27542265
14
Frame=1 idx=002144 GeodesicLength=0.06957430969767939 rxn_smarts="[C:1]([C@@:2]1([H:10])[C:3]([H:11])([H:12])[C@@:4]2([H:13])[O:5][C@@:6]12[H:14])([H:7])([H:8])[H:9]>>[C:1]([C:2]([C@@:6]1([H:14])[C@:4]([C:3][H:11])([H:13])[O:5]1)([H:10])[H:12])([H:7])([H:8])[H:9]"
C        1.63898292       0.49131732       0.36808328
C        0.40333199       0.44343367      -0.49663498
C       -0.73991518      -1.50062205      -0.78124067
C       -1.63313613      -0.64708953       0.03277979
O       -1.13198137      -0.21963741       1.31498657
C       -0.93319688       0.61720718       0.19540318
H        1.55902783      -0.21676471       1.19227953
H        1.75844672       1.48993996       0.79622086
H        2.53740033       0.26109159      -0.20529030
H        0.46070964       1.12171807      -1.35281099
H       -0.13165207      -2.13333416      -0.11576136
H        0.32554298      -0.55590825      -1.14791656
H       -2.70990822      -0.74509049      -0.04580828
H       -1.40365256       1.59373879       0.24570993
14
Frame=2 idx=002144 GeodesicLength=0.1391809242989293 rxn_smarts="[C:1]([C@@:2]1([H:10])[C:3]([H:11])([H:12])[C@@:4]2([H:13])[O:5][C@@:6]12[H:14])([H:7])([H:8])[H:9]>>[C:1]([C:2]([C@@:6]1([H:14])[C@:4]([C:3][H:11])([H:13])[O:5]1)([H:10])[H:12])([H:7])([H:8])[H:9]"
C        1.63609747       0.47754642       0.36540074
C        0.39976669       0.44625853      -0.49972092
C       -0.72150204      -1.50122969      -0.75348939
C       -1.63084783      -0.64894468       0.04118570
O       -1.14052962      -0.19624080       1.31868908
C       -0.93806163       0.62394068       0.18889148
H        1.56716969      -0.25712221       1.16706081
H        1.75062730       1.46170259       0.82658228
H        2.53547704       0.27122842      -0.21568816
H        0.46266272       1.14420002      -1.33972294
H       -0.11127202      -2.12237336      -0.08002813
H        0.31769436      -0.54435726      -1.19014636
H       -2.70658147      -0.75014213      -0.04574186
H       -1.42070065       1.59553346       0.21672768
14
Frame=3 idx=002144 GeodesicLength=0.2088377805992892 rxn_smarts="[C:1]([C@@:2]1([H:10])[C:3]([H:11])([H:12])[C@@:4]2([H:13])[O:5][C@@:6]12[H:14])([H:7])([H:8])[H:9]>>[C:1]([C:2]([C@@:6]1([H:14])[C@:4]([C:3][H:11])([H:13])[O:5]1)([H:10])[H:12])([H:7])([H:8])[H:9]"
C        1.63325960       0.46424720       0.36278936
C        0.39640046       0.44884222      -0.50264675
C       -0.70298373      -1.50029343      -0.72694852
C       -1.62831681      -0.65075181       0.04963593
O       -1.14876222      -0.17356404       1.32209777
C       -0.94269012       0.63051392       0.18280106
H        1.57516690      -0.29508898       1.14207034
H        1.74296542       1.43342257       0.85533371
H        2.53352299       0.28112882      -0.22483237
H        0.46491656       1.16518634      -1.32672331
H       -0.09215400      -2.11145167      -0.04594771
H        0.30895152      -0.53343547      -1.23049627
H       -2.70292817      -0.75530274      -0.04556985
H       -1.43734840       1.59654706       0.18843660
14
Frame=4 idx=002144 GeodesicLength=0.2785345806452827 rxn_smarts="[C:1]([C@@:2]1([H:10])[C:3]([H:11])([H:12])[C@@:4]2([H:13])[O:5][C@@:6]12[H:14])([H:7])([H:8])[H:9]>>[C:1]([C:2]([C@@:6]1([H:14])[C@:4]([C:3][H:11])([H:13])[O:5]1)([H:10])[H:12])([H:7])([H:8])[H:9]"
C        1.63048518       0.45142691       0.36027571
C        0.39323788       0.45122528      -0.50540624
C       -0.68451085      -1.49800066      -0.70156926
C       -1.62558553      -0.65247858       0.05810668
O       -1.15669698      -0.15157495       1.32521457
C       -0.94708907       0.63694241       0.17708227
H        1.58312715      -0.33088873       1.11731012
H        1.73538552       1.40516734       0.88267381
H        2.53158178       0.29094580      -0.23282991
H        0.46742764       1.18474576      -1.31387858
H       -0.07426933      -2.10061329      -0.01342247
H        0.29947693      -0.52322134      -1.26909802
H       -2.69899985      -0.76048138      -0.04526790
H       -1.45357047       1.59680543       0.16080922
14
Frame=5 idx=002144 GeodesicLength=0.3482670765346948 rxn_smarts="[C:1]([C@@:2]1([H:10])[C:3]([H:11])([H:12])[C@@:4]2([H:13])[O:5][C@@:6]12[H:14])([H:7])([H:8])[H:9]>>[C:1]([C:2]([C@@:6]1([H:14])[C@:4]([C:3][H:11])([H:13])[O:5]1)([H:10])[H:12])([H:7])([H:8])[H:9]"
C        1.62778629       0.43907375       0.35787596
C        0.39027764       0.45344672      -0.50799839
C       -0.66619968      -1.49452339      -0.67727988
C       -1.62268837      -0.65409841       0.06658477
O       -1.16434908      -0.13021977       1.32804658
C       -0.95126765       0.64324769       0.17168738
H        1.59115175      -0.36475508       1.09273595
H        1.72781548       1.37694703       0.90881502
H        2.52967834       0.30083033      -0.23976744
H        0.47015484       1.20295506      -1.30124383
H       -0.05754515      -2.08987506       0.01765570
H        0.28939145      -0.51377940      -1.30609098
H       -2.69484261      -0.76560769      -0.04481472
H       -1.46936327       1.59635822       0.13379387
14
Frame=6 idx=002144 GeodesicLength=0.4180250256629514 rxn_smarts="[C:1]([C@@:2]1([H:10])[C:3]([H:11])([H:12])[C@@:4]2([H:13])[O:5][C@@:6]12[H:14])([H:7])([H:8])[H:9]>>[C:1]([C:2]([C@@:6]1([H:14])[C@:4]([C:3][H:11])([H:13])[O:5]1)([H:10])[H:12])([H:7])([H:8])[H:9]"
C        1.62516630       0.42716531       0.35560010
C        0.38751366       0.45553228      -0.51042243
C       -0.64813138      -1.49001198      -0.65400152
C       -1.61965450      -0.65559534       0.07506295
O       -1.17174703      -0.10944785       1.33060616
C       -0.95524176       0.64944582       0.16657425
H        1.59930040      -0.39685320       1.06831076
H        1.72021213       1.34875128       0.93390779
H        2.52783055       0.31086325      -0.24570645
H        0.47306668       1.21991462      -1.28884427
H       -0.04188545      -2.07922920       0.04739001
H        0.27877837      -0.50514069      -1.34163265
H       -2.69049310      -0.77063324      -0.04420150
H       -1.48471487       1.59523893       0.10735679
14
Frame=7 idx=002144 GeodesicLength=0.4878116865969013 rxn_smarts="[C:1]([C@@:2]1([H:10])[C:3]([H:11])([H:12])[C@@:4]2([H:13])[O:5][C@@:6]12[H:14])([H:7])([H:8])[H:9]>>[C:1]([C:2]([C@@:6]1([H:14])[C@:4]([C:3][H:11])([H:13])[O:5]1)([H:10])[H:12])([H:7])([H:8])[H:9]"
C        1.62262535       0.41568043       0.35345690
C        0.38493705       0.45750484      -0.51267999
C       -0.63035631      -1.48460060      -0.63164738
C       -1.61651494      -0.65695595       0.08353764
O       -1.17891302      -0.08919869       1.33291008
C       -0.95902638       0.65555543       0.16170393
H        1.60763411      -0.42735828       1.04397089
H        1.71253600       1.32053157       0.95810272
H        2.52603980       0.32113820      -0.25069844
H        0.47613530       1.23571614      -1.27669952
H       -0.02718511      -2.06865698       0.07588604
H        0.26770376      -0.49733280      -1.37587022
H       -2.68598982      -0.77552258      -0.04342273
H       -1.49962578       1.59349927       0.08145008
14
Frame=8 idx=002144 GeodesicLength=0.5575939101484577 rxn_smarts="[C:1]([C@@:2]1([H:10])[C:3]([H:11])([H:12])[C@@:4]2([H:13])[O:5][C@@:6]12[H:14])([H:7])([H:8])[H:9]>>[C:1]([C:2]([C@@:6]1([H:14])[C@:4]([C:3][H:11])([H:13])[O:5]1)([H:10])[H:12])([H:7])([H:8])[H:9]"
C        1.62016358       0.40459658       0.35145230
C        0.38254073       0.45938202      -0.51477208
C       -0.61291583      -1.47839750      -0.61014531
C       -1.61329176      -0.65817012       0.09200813
O       -1.18587198      -0.06942546       1.33496799
C       -0.96263576       0.66158889       0.15704345
H        1.61620042      -0.45639573       1.01965854
H        1.70475753       1.29224543       0.98151061
H        2.52431385       0.33171378      -0.25477512
H        0.47933677       1.25044329      -1.26481573
H       -0.01335356      -2.05813557       0.10323082
H        0.25621270      -0.49037383      -1.40892728
H       -2.68136128      -0.78024792      -0.04247363
H       -1.51409538       1.59117612       0.05603731
14
Frame=9 idx=002144 GeodesicLength=0.6274049345975851 rxn_smarts="[C:1]([C@@:2]1([H:10])[C:3]([H:11])([H:12])[C@@:4]2([H:13])[O:5][C@@:6]12[H:14])([H:7])([H:8])[H:9]>>[C:1]([C:2]([C@@:6]1([H:14])[C@:4]([C:3][H:11])([H:13])[O:5]1)([H:10])[H:12])([H:7])([H:8])[H:9]"
C        1.61777683       0.39387583       0.34958632
C        0.38031505       0.46112250      -0.51670787
C       -0.59581774      -1.47156287      -0.58934568
C       -1.61001876      -0.65925657       0.10048630
O       -1.19263925      -0.05007263       1.33680857
C       -0.96607333       0.66753407       0.15256551
H        1.62498882      -0.48415787       0.99529290
H        1.69688376       1.26387219       1.00418409
H        2.52263743       0.34265125      -0.25796562
H        0.48268056       1.26420579      -1.25311173
H       -0.00030598      -2.04764809       0.12958033
H        0.24438486      -0.48411022      -1.44104393
H       -2.67665603      -0.78480603      -0.04135422
H       -1.52815621       1.58835264       0.03102503
14
Frame=10 idx=002144 GeodesicLength=0.6972412666792642 rxn_smarts="[C:1]([C@@:2]1([H:10])[C:3]([H:11])([H:12])[C@@:4]2([H:13])[O:5][C@@:6]12[H:14])([H:7])([H:8])[H:9]>>[C:1]([C:2]([C@@:6]1([H:14])[C@:4]([C:3][H:11])([H:13])[O:5]1)([H:10])[H:12])([H:7])([H:8])[H:9]"
C        1.61546828       0.38349750       0.34786473
C        0.37825636       0.46280010      -0.51848831
C       -0.57910323      -1.46412538      -0.56924007
C       -1.60669381      -0.66017761       0.10896758
O       -1.19923554      -0.03108042       1.33842293
C       -0.96936008       0.67343417       0.14822891
H        1.63407774      -0.51070860       0.97081093
H        1.68883775       1.23531128       1.02629021
H        2.52101298       0.35401308      -0.26028347
H        0.48612573       1.27706049      -1.24167753
H        0.01206420      -2.03715958       0.15496219
H        0.23219445      -0.47871249      -1.47223382
H       -2.67186739      -0.78916740      -0.04004975
H       -1.54177743       1.58501486       0.00642547
14
Frame=11 idx=002144 GeodesicLength=0.7671064555438786 rxn_smarts="[C:1]([C@@:2]1([H:10])[C:3]([H:11])([H:12])[C@@:4]2([H:13])[O:5][C@@:6]12[H:14])([H:7])([H:8])[H:9]>>[C:1]([C:2]([C@@:6]1([H:14])[C@:4]([C:3][H:11])([H:13])[O:5]1)([H:10])[H:12])([H:7])([H:8])[H:9]"
C        1.61323582       0.37343587       0.34628568
C        0.37635859       0.46442460      -0.52012104
C       -0.56278311      -1.45616019      -0.54975185
C       -1.60332615      -0.66092855       0.11745903
O       -1.20567469      -0.01239447       1.33982218
C       -0.97250668       0.67930291       0.14400285
H        1.64348962      -0.53615628       0.94613562
H        1.68058396       1.20648717       1.04792012
H        2.51942762       0.36585690      -0.26173399
H        0.48966550       1.28908765      -1.23051917
H        0.02384691      -2.02664306       0.17945498
H        0.21965628      -0.47419433      -1.50260377
H       -2.66701056      -0.79332269      -0.03855383
H       -1.55496310       1.58120448      -0.01779682
14
Frame=12 idx=002144 GeodesicLength=0.8370030821591592 rxn_smarts="[C:1]([C@@:2]1([H:10])[C:3]([H:11])([H:12])[C@@:4]2([H:13])[O:5][C@@:6]12[H:14])([H:7])([H:8])[H:9]>>[C:1]([C:2]([C@@:6]1([H:14])[C@:4]([C:3][H:11])([H:13])[O:5]1)([H:10])[H:12])([H:7])([H:8])[H:9]"
C        1.61108042       0.36366331       0.34484682
C        0.37461663       0.46600938      -0.52161202
C       -0.54685959      -1.44772669      -0.53081475
C       -1.59992114      -0.66150509       0.12596582
O       -1.21197062       0.00603190       1.34101365
C       -0.97552313       0.68515109       0.13986148
H        1.65323275      -0.56057539       0.92119968
H        1.67208825       1.17733543       1.06913927
H        2.51787686       0.37820864      -0.26231692
H        0.49329368       1.30036195      -1.21962986
H        0.03512296      -2.01607048       0.20312843
H        0.20677086      -0.47056656      -1.53225089
H       -2.66209368      -0.79726901      -0.03686294
H       -1.56771426       1.57695151      -0.04166776
14
Frame=13 idx=002144 GeodesicLength=0.9069561961033564 rxn_smarts="[C:1]([C@@:2]1([H:10])[C:3]([H:11])([H:12])[C@@:4]2([H:13])[O:5][C@@:6]12[H:14])([H:7])([H:8])[H:9]>>[C:1]([C:2]([C@@:6]1([H:14])[C@:4]([C:3][H:11])([H:13])[O:5]1)([H:10])[H:12])([H:7])([H:8])[H:9]"
C        1.60900082       0.35415544       0.34354498
C        0.37302595       0.46756778      -0.52296835
C       -0.53132482      -1.43887673      -0.51235894
C       -1.59648429      -0.66190158       0.13449823
O       -1.21813206       0.02425411       1.34200632
C       -0.97841743       0.69099336       0.13577937
H        1.66331943      -0.58404969       0.89590560
H        1.66332209       1.14774864       1.09002489
H        2.51634316       0.39112739      -0.26201434
H        0.49700595       1.31095485      -1.20901262
H        0.04597533      -2.00541124       0.22606099
H        0.19353587      -0.46784941      -1.56126570
H       -2.65712652      -0.80100593      -0.03496979
H       -1.58004348       1.57229302      -0.06523063
14
Frame=14 idx=002144 GeodesicLength=0.9769607962200915 rxn_smarts="[C:1]([C@@:2]1([H:10])[C:3]([H:11])([H:12])[C@@:4]2([H:13])[O:5][C@@:6]12[H:14])([H:7])([H:8])[H:9]>>[C:1]([C:2]([C@@:6]1([H:14])[C@:4]([C:3][H:11])([H:13])[O:5]1)([H:10])[H:12])([H:7])([H:8])[H:9]"
C        1.60699401       0.34489388       0.34237793
C        0.37158160       0.46911052      -0.52419682
C       -0.51616697      -1.42965239      -0.49433240
C       -1.59301822      -0.66211519       0.14306216
O       -1.22417145       0.04230933       1.34280287
C       -0.98119790       0.69683655       0.13173488
H        1.67374882      -0.60661837       0.87018127
H        1.65426586       1.11765157       1.11060727
H        2.51481998       0.40462582      -0.26080303
H        0.50080113       1.32092646      -1.19864992
H        0.05646870      -1.99463666       0.24832137
H        0.17994096      -0.46604973      -1.58972761
H       -2.65211232      -0.80453460      -0.03287373
H       -1.59195421       1.56725280      -0.08850425
14
Frame=15 idx=002144 GeodesicLength=1.04702634477106 rxn_smarts="[C:1]([C@@:2]1([H:10])[C:3]([H:11])([H:12])[C@@:4]2([H:13])[O:5][C@@:6]12[H:14])([H:7])([H:8])[H:9]>>[C:1]([C:2]([C@@:6]1([H:14])[C@:4]([C:3][H:11])([H:13])[O:5]1)([H:10])[H:12])([H:7])([H:8])[H:9]"
C        1.60505947       0.33585750       0.34134258
C        0.37028064       0.47064860      -0.52530490
C       -0.50136995      -1.42009014      -0.47668078
C       -1.58952331      -0.66214209       0.15166589
O       -1.23009558       0.06023933       1.34340746
C       -0.98386977       0.70268995       0.12770780
H        1.68451880      -0.62832353       0.84393861
H        1.64489601       1.08694630       1.13092280
H        2.51329334       0.41873286      -0.25864907
H        0.50468027       1.33034338      -1.18853362
H        0.06667187      -1.98371652       0.26998044
H        0.16597093      -0.46518595      -1.61770709
H       -2.64705642      -0.80785759      -0.03057168
H       -1.60345631       1.56185790      -0.11151845
14
Frame=16 idx=002144 GeodesicLength=1.1171648224170545 rxn_smarts="[C:1]([C@@:2]1([H:10])[C:3]([H:11])([H:12])[C@@:4]2([H:13])[O:5][C@@:6]12[H:14])([H:7])([H:8])[H:9]>>[C:1]([C:2]([C@@:6]1([H:14])[C@:4]([C:3][H:11])([H:13])[O:5]1)([H:10])[H:12])([H:7])([H:8])[H:9]"
C        1.60319532       0.32703134       0.34043784
C        0.36912030       0.47219484      -0.52629880
C       -0.48691224      -1.41021902      -0.45935721
C       -1.58599719      -0.66197813       0.16031887
O       -1.23591272       0.07808279       1.34382164
C       -0.98643823       0.70856225       0.12367988
H        1.69561748      -0.64918819       0.81709411
H        1.63519805       1.05553228       1.15099166
H        2.51174994       0.43346342      -0.25550968
H        0.50864480       1.33926379      -1.17865230
H        0.07664895      -1.97261823       0.29110136
H        0.15160555      -0.46527834      -1.64526837
H       -2.64195730      -0.81097832      -0.02806020
H       -1.61456271       1.55612954      -0.13429881
