13
Frame=0 idx=011837 GeodesicLength=0.0 rxn_smarts="[C:1]([C:2]([O:3][H:11])([C:4](=[O:5])[H:12])[C:6](=[O:7])[H:13])([H:8])([H:9])[H:10]>>[C:1]([C:2](=[O:3])[C:4](=[O:5])[H:12])([C:6](=[O:7])[H:13])([H:9])[H:10].[H:8][H:11]"
C       -0.48694154      -0.94054914      -0.33962365
C        0.05279212       0.19663960       0.35551341
O        0.17044531       0.10042179       1.63162516
C       -0.36615222       1.54551830      -0.21966448
O       -0.40346748       1.77520205      -1.39693730
C        1.53663613      -0.14061526      -0.50273865
O        2.34046446      -0.88010831      -0.07822896
H       -1.64879685      -1.05413546       1.06106314
H       -0.14844834      -1.92047571      -0.02898899
H       -0.91669163      -0.84203806      -1.33331521
H       -1.15135222      -0.68855130       1.64938817
H       -0.61796285       2.29372518       0.55352628
H        1.63947512       0.55496628      -1.35161889
13
Frame=1 idx=011837 GeodesicLength=0.09064998005140379 rxn_smarts="[C:1]([C:2]([O:3][H:11])([C:4](=[O:5])[H:12])[C:6](=[O:7])[H:13])([H:8])([H:9])[H:10]>>[C:1]([C:2](=[O:3])[C:4](=[O:5])[H:12])([C:6](=[O:7])[H:13])([H:9])[H:10].[H:8][H:11]"
C       -0.48504209      -0.93272722      -0.34430444
C        0.04377770       0.21085746       0.35698014
O        0.15250622       0.11934532       1.63479175
C       -0.36723969       1.55987004      -0.22285664
O       -0.40076222       1.78753673      -1.40044691
C        1.52873431      -0.15521135      -0.50359668
O        2.33741729      -0.88151174      -0.06108222
H       -1.63165474      -1.09754676       1.06712970
H       -0.15141643      -1.91813122      -0.04553957
H       -0.91111452      -0.82740758      -1.33910216
H       -1.13932016      -0.70445517       1.67200564
H       -0.61435361       2.31195975       0.54837593
H        1.63846793       0.52742173      -1.36235454
13
Frame=2 idx=011837 GeodesicLength=0.18114817267527972 rxn_smarts="[C:1]([C:2]([O:3][H:11])([C:4](=[O:5])[H:12])[C:6](=[O:7])[H:13])([H:8])([H:9])[H:10]>>[C:1]([C:2](=[O:3])[C:4](=[O:5])[H:12])([C:6](=[O:7])[H:13])([H:9])[H:10].[H:8][H:11]"
C       -0.48348274      -0.92493026      -0.34895149
C        0.03450535       0.22506169       0.35824474
O        0.13386729       0.13828618       1.63774900
C       -0.36851887       1.57420204      -0.22623007
O       -0.39779724       1.79982372      -1.40414660
C        1.52068193      -0.16973131      -0.50386757
O        2.33378567      -0.88308491      -0.04401765
H       -1.61323725      -1.14016841       1.07263678
H       -0.15484964      -1.91582441      -0.06253083
H       -0.90566270      -0.81278192      -1.34489123
H       -1.12579183      -0.72082454       1.69524015
H       -0.61096177       2.33016159       0.54300292
H        1.63746178       0.49981052      -1.37223814
13
Frame=3 idx=011837 GeodesicLength=0.27150601656386475 rxn_smarts="[C:1]([C:2]([O:3][H:11])([C:4](=[O:5])[H:12])[C:6](=[O:7])[H:13])([H:8])([H:9])[H:10]>>[C:1]([C:2](=[O:3])[C:4](=[O:5])[H:12])([C:6](=[O:7])[H:13])([H:9])[H:10].[H:8][H:11]"
C       -0.48225579      -0.91716967      -0.35357879
C        0.02495861       0.23924952       0.35930978
O        0.11447394       0.15724986       1.64047682
C       -0.37002114       1.58850457      -0.22978063
O       -0.39460445       1.81206158      -1.40802312
C        1.51246345      -0.18417556      -0.50355650
O        2.32955033      -0.88485367      -0.02698167
H       -1.59366677      -1.18192950       1.07751279
H       -0.15876239      -1.91354653      -0.07996462
H       -0.90029526      -0.79817288      -1.35070799
H       -1.11056017      -0.73768897       1.71914543
H       -0.60774214       2.34833662       0.53741773
H        1.63646177       0.47213463      -1.38126922
13
Frame=4 idx=011837 GeodesicLength=0.3616693210018651 rxn_smarts="[C:1]([C:2]([O:3][H:11])([C:4](=[O:5])[H:12])[C:6](=[O:7])[H:13])([H:8])([H:9])[H:10]>>[C:1]([C:2](=[O:3])[C:4](=[O:5])[H:12])([C:6](=[O:7])[H:13])([H:9])[H:10].[H:8][H:11]"
C       -0.48137247      -0.90944803      -0.35820636
C        0.01510692       0.25342489       0.36017301
O        0.09423254       0.17623835       1.64294612
C       -0.37177143       1.60278082      -0.23351370
O       -0.39119424       1.82425659      -1.41207539
C        1.50405615      -0.19854957      -0.50265242
O        2.32466914      -0.88684846      -0.00989047
H       -1.57301730      -1.22282337       1.08173801
H       -0.16318842      -1.91127672      -0.09786943
H       -0.89499176      -0.78357389      -1.35658188
H       -1.09335464      -0.75506533       1.74374805
H       -0.60465406       2.36649732       0.53161509
H        1.63547959       0.44438739      -1.38943063
13
Frame=5 idx=011837 GeodesicLength=0.45149994371809193 rxn_smarts="[C:1]([C:2]([O:3][H:11])([C:4](=[O:5])[H:12])[C:6](=[O:7])[H:13])([H:8])([H:9])[H:10]>>[C:1]([C:2](=[O:3])[C:4](=[O:5])[H:12])([C:6](=[O:7])[H:13])([H:9])[H:10].[H:8][H:11]"
C       -0.48084789      -0.90176585      -0.36285660
C        0.00491714       0.26758965       0.36083138
O        0.07302810       0.19524131       1.64512085
C       -0.37378408       1.61703526      -0.23743268
O       -0.38757402       1.83641798      -1.41630022
C        1.49543168      -0.21286507      -0.50114911
O        2.31910006      -0.88908784       0.00734279
H       -1.55132559      -1.26286872       1.08531169
H       -0.16815789      -1.90899419      -0.11626878
H       -0.88973958      -0.76897510      -1.36254196
H       -1.07392432      -0.77293598       1.76904738
H       -0.60164609       2.38465145       0.52559614
H        1.63452248       0.41655709      -1.39670088
13
Frame=6 idx=011837 GeodesicLength=0.5412228236215022 rxn_smarts="[C:1]([C:2]([O:3][H:11])([C:4](=[O:5])[H:12])[C:6](=[O:7])[H:13])([H:8])([H:9])[H:10]>>[C:1]([C:2](=[O:3])[C:4](=[O:5])[H:12])([C:6](=[O:7])[H:13])([H:9])[H:10].[H:8][H:11]"
C       -0.48068773      -0.89413180      -0.36755482
C       -0.00564053       0.28173932       0.36127779
O        0.05074776       0.21421276       1.64698517
C       -0.37608991       1.63126423      -0.24153777
O       -0.38375799       1.84855071      -1.42068355
C        1.48656684      -0.22712863      -0.49903587
O        2.31279455      -0.89160324       0.02479232
H       -1.52873012      -1.30203091       1.08814594
H       -0.17369896      -1.90667902      -0.13515378
H       -0.88449880      -0.75437980      -1.36862605
H       -1.05190363      -0.79124603       1.79508260
H       -0.59870015       2.40279713       0.51937018
H        1.63359867       0.38863528      -1.40306215
13
Frame=7 idx=011837 GeodesicLength=0.6307860463023511 rxn_smarts="[C:1]([C:2]([O:3][H:11])([C:4](=[O:5])[H:12])[C:6](=[O:7])[H:13])([H:8])([H:9])[H:10]>>[C:1]([C:2](=[O:3])[C:4](=[O:5])[H:12])([C:6](=[O:7])[H:13])([H:9])[H:10].[H:8][H:11]"
C       -0.48090927      -0.88655330      -0.37233224
C       -0.01659651       0.29586702       0.36149817
O        0.02724766       0.23308605       1.64851201
C       -0.37869906       1.64546884      -0.24582779
O       -0.37974516       1.86066703      -1.42520883
C        1.47743122      -0.24136144      -0.49630755
O        2.30570321      -0.89441813       0.04253620
H       -1.50525221      -1.34034119       1.09022925
H       -0.17983504      -1.90431067      -0.15453937
H       -0.87925147      -0.73977910      -1.37487110
H       -1.02701694      -0.80986037       1.82184357
H       -0.59579419       2.42092666       0.51295750
H        1.63271776       0.36060861      -1.40848982
13
Frame=8 idx=011837 GeodesicLength=0.7203902310133334 rxn_smarts="[C:1]([C:2]([O:3][H:11])([C:4](=[O:5])[H:12])[C:6](=[O:7])[H:13])([H:8])([H:9])[H:10]>>[C:1]([C:2](=[O:3])[C:4](=[O:5])[H:12])([C:6](=[O:7])[H:13])([H:9])[H:10].[H:8][H:11]"
C       -0.48152408      -0.87903903      -0.37722142
C       -0.02798192       0.30996090       0.36148218
O        0.00237137       0.25176495       1.64968353
C       -0.38162408       1.65965016      -0.25029397
O       -0.37553476       1.87277469      -1.42985754
C        1.46799419      -0.25558029      -0.49295716
O        2.29776775      -0.89755875       0.06065312
H       -1.48100056      -1.37780962       1.09148809
H       -0.18659658      -1.90187388      -0.17441264
H       -0.87396490      -0.72517164      -1.38131778
H       -0.99886875      -0.82860427       1.84932745
H       -0.59292518       2.43902008       0.50638256
H        1.63188751       0.33246668      -1.41295641
13
Frame=9 idx=011837 GeodesicLength=0.8106692321030081 rxn_smarts="[C:1]([C:2]([O:3][H:11])([C:4](=[O:5])[H:12])[C:6](=[O:7])[H:13])([H:8])([H:9])[H:10]>>[C:1]([C:2](=[O:3])[C:4](=[O:5])[H:12])([C:6](=[O:7])[H:13])([H:9])[H:10].[H:8][H:11]"
C       -0.48239022      -0.87164167      -0.38216793
C       -0.03972295       0.32398687       0.36125689
O       -0.02363760       0.27019695       1.65059799
C       -0.38492966       1.67373963      -0.25488642
O       -0.37128173       1.88477358      -1.43458978
C        1.45832898      -0.26973099      -0.48908263
O        2.28921297      -0.90092426       0.07899009
H       -1.45719303      -1.41377610       1.09126993
H       -0.19395428      -1.89941260      -0.19425358
H       -0.86843267      -0.71073721      -1.38792855
H       -0.96694001      -0.84781054       1.87761108
H       -0.59014058       2.45702796       0.49972395
H        1.63108078       0.30430839      -1.41654102
13
Frame=10 idx=011837 GeodesicLength=0.9010390320573676 rxn_smarts="[C:1]([C:2]([O:3][H:11])([C:4](=[O:5])[H:12])[C:6](=[O:7])[H:13])([H:8])([H:9])[H:10]>>[C:1]([C:2](=[O:3])[C:4](=[O:5])[H:12])([C:6](=[O:7])[H:13])([H:9])[H:10].[H:8][H:11]"
C       -0.48366471      -0.86434576      -0.38729767
C       -0.05193668       0.33792873       0.36077710
O       -0.05136416       0.28818752       1.65108125
C       -0.38856358       1.68778863      -0.25959951
O       -0.36684569       1.89678855      -1.43936525
C        1.44832715      -0.28390712      -0.48459291
O        2.27974644      -0.90466163       0.09781892
H       -1.43277753      -1.44907603       1.09017128
H       -0.20195070      -1.89688575      -0.21457580
H       -0.86280425      -0.69629687      -1.39481360
H       -0.93116157      -0.86646283       1.90650130
H       -0.58734294       2.47492006       0.49302864
H        1.63033820       0.27602249      -1.41913374
13
Frame=11 idx=011837 GeodesicLength=0.9913892098933736 rxn_smarts="[C:1]([C:2]([O:3][H:11])([C:4](=[O:5])[H:12])[C:6](=[O:7])[H:13])([H:8])([H:9])[H:10]>>[C:1]([C:2](=[O:3])[C:4](=[O:5])[H:12])([C:6](=[O:7])[H:13])([H:9])[H:10].[H:8][H:11]"
C       -0.48533568      -0.85718429      -0.39264403
C       -0.06462288       0.35174058       0.36004685
O       -0.08091818       0.30558925       1.65107237
C       -0.39252616       1.70177366      -0.26437733
O       -0.36224874       1.90882443      -1.44411598
C        1.43797166      -0.29813573      -0.47951478
O        2.26934983      -0.90879246       0.11714374
H       -1.40772228      -1.48382261       1.08816001
H       -0.21055526      -1.89430121      -0.23538379
H       -0.85704811      -0.68185921      -1.40199561
H       -0.89150659      -0.88406764       1.93594229
H       -0.58449405       2.49262570       0.48639601
H        1.62965644       0.24760953      -1.42072973
13
Frame=12 idx=011837 GeodesicLength=1.0818336678090452 rxn_smarts="[C:1]([C:2]([O:3][H:11])([C:4](=[O:5])[H:12])[C:6](=[O:7])[H:13])([H:8])([H:9])[H:10]>>[C:1]([C:2](=[O:3])[C:4](=[O:5])[H:12])([C:6](=[O:7])[H:13])([H:9])[H:10].[H:8][H:11]"
C       -0.48736308      -0.85019965      -0.39823563
C       -0.07776333       0.36536790       0.35907031
O       -0.11236969       0.32223054       1.65052210
C       -0.39682554       1.71565772      -0.26915634
O       -0.35752550       1.92087391      -1.44875771
C        1.42726866      -0.31243746      -0.47388991
O        2.25803090      -0.91332848       0.13694618
H       -1.38222588      -1.51801501       1.08507980
H       -0.21972914      -1.89166942      -0.25661388
H       -0.85109371      -0.66745809      -1.40949594
H       -0.84782895      -0.90014996       1.96593690
H       -0.58160914       2.51005537       0.47994503
H        1.62903441       0.21907262      -1.42135092
13
Frame=13 idx=011837 GeodesicLength=1.1723034560203343 rxn_smarts="[C:1]([C:2]([O:3][H:11])([C:4](=[O:5])[H:12])[C:6](=[O:7])[H:13])([H:8])([H:9])[H:10]>>[C:1]([C:2](=[O:3])[C:4](=[O:5])[H:12])([C:6](=[O:7])[H:13])([H:9])[H:10].[H:8][H:11]"
C       -0.48970142      -0.84344799      -0.40410700
C       -0.09132018       0.37873763       0.35785115
O       -0.14579597       0.33788940       1.64939572
C       -0.40145605       1.72939477      -0.27384792
O       -0.35272428       1.93294459      -1.45318530
C        1.41623344      -0.32684295      -0.46778449
O        2.24583057      -0.91830393       0.15715139
H       -1.35632851      -1.55174818       1.08083415
H       -0.22938537      -1.88903162      -0.27824926
H       -0.84489426      -0.65312270      -1.41732536
H       -0.80025098      -0.91399047       1.99647041
H       -0.57867315       2.52708899       0.47383165
H        1.62846616       0.19043245      -1.42103514
13
Frame=14 idx=011837 GeodesicLength=1.26284523643172 rxn_smarts="[C:1]([C:2]([O:3][H:11])([C:4](=[O:5])[H:12])[C:6](=[O:7])[H:13])([H:8])([H:9])[H:10]>>[C:1]([C:2](=[O:3])[C:4](=[O:5])[H:12])([C:6](=[O:7])[H:13])([H:9])[H:10].[H:8][H:11]"
C       -0.49228471      -0.83697374      -0.41029531
C       -0.10523857       0.39177770       0.35639925
O       -0.18119929       0.35236264       1.64762996
C       -0.40641168       1.74293786      -0.27836285
O       -0.34786884       1.94503179      -1.45729722
C        1.40490064      -0.34138329      -0.46127119
O        2.23279729      -0.92375157       0.17769137
H       -1.33031521      -1.58499691       1.07522333
H       -0.23947126      -1.88641635      -0.30022290
H       -0.83836503      -0.63888366      -1.42550547
H       -0.74871187      -0.92499544       2.02763252
H       -0.57579734       2.54359731       0.46821583
H        1.62796588       0.16169366      -1.41983731
13
Frame=15 idx=011837 GeodesicLength=1.353383373404662 rxn_smarts="[C:1]([C:2]([O:3][H:11])([C:4](=[O:5])[H:12])[C:6](=[O:7])[H:13])([H:8])([H:9])[H:10]>>[C:1]([C:2](=[O:3])[C:4](=[O:5])[H:12])([C:6](=[O:7])[H:13])([H:9])[H:10].[H:8][H:11]"
C       -0.49504123      -0.83083030      -0.41684455
C       -0.11944582       0.40440047       0.35471998
O       -0.21857684       0.36539207       1.64517158
C       -0.41167306       1.75623065      -0.28259197
O       -0.34298434       1.95714687      -1.46097067
C        1.39331796      -0.35609960      -0.45444832
O        2.21901868      -0.92971766       0.19845008
H       -1.30440602      -1.61778514       1.06807593
H       -0.24990775      -1.88388206      -0.32249707
H       -0.83143494      -0.62476908      -1.43405263
H       -0.69332240      -0.93237898       2.05952880
H       -0.57309495       2.55942068       0.46329299
H        1.62755071       0.13287207      -1.41783416
13
Frame=16 idx=011837 GeodesicLength=1.443866637755709 rxn_smarts="[C:1]([C:2]([O:3][H:11])([C:4](=[O:5])[H:12])[C:6](=[O:7])[H:13])([H:8])([H:9])[H:10]>>[C:1]([C:2](=[O:3])[C:4](=[O:5])[H:12])([C:6](=[O:7])[H:13])([H:9])[H:10].[H:8][H:11]"
C       -0.49790237      -0.82507439      -0.42380490
C       -0.13386215       0.41650722       0.35282664
O       -0.25791893       0.37670685       1.64195268
C       -0.41721011       1.76921098      -0.28641056
O       -0.33807427       1.96931234      -1.46407627
C        1.38154729      -0.37104312      -0.44741555
O        2.20460519      -0.93627922       0.21931241
H       -1.27890736      -1.65016566       1.05919745
H       -0.26063204      -1.88149529      -0.34504783
H       -0.82404140      -0.61079528      -1.44298660
H       -0.63411437      -0.93524611       2.09227972
H       -0.57074514       2.57437907       0.45928404
H        1.62725567       0.10398261      -1.41511124
