15
Frame=0 idx=010619 GeodesicLength=0.0 rxn_smarts="[O:1]=[C:2]1[C:3]([H:8])([H:9])[C:4]([H:10])([H:11])[C@@:5]2([H:12])[C:6]([H:13])([H:14])[C@@:7]12[H:15]>>[O:1]=[C:2]1[C:3]([H:8])([H:9])[C:4]([H:10])([H:11])[C:6]([H:13])([H:14])[C:5]([H:12])=[C:7]1[H:15]"
O       -0.41201685       2.74854598       0.06067301
C       -0.21749206       1.54529902       0.13607306
C       -1.24781798       0.51243914      -0.34930588
C       -0.75562951      -0.81477139       0.17557686
C        0.89871659      -0.56203240       0.55652515
C        1.24333717      -0.94158763      -0.78987445
C        0.86643603       0.86610788       0.76033468
H       -1.35586320       0.53910333      -1.43358280
H       -2.21337342       0.77551337       0.08508653
H       -1.12404409      -1.04218039       1.17518961
H       -0.95358043      -1.67682730      -0.45314206
H        1.17346858      -1.25413727       1.35601798
H        1.57672984      -0.18245090      -1.48580540
H        0.96594618      -1.90573687      -1.20056650
H        1.55518321       1.39271539       1.40680022
15
Frame=1 idx=010619 GeodesicLength=0.07635767244493116 rxn_smarts="[O:1]=[C:2]1[C:3]([H:8])([H:9])[C:4]([H:10])([H:11])[C@@:5]2([H:12])[C:6]([H:13])([H:14])[C@@:7]12[H:15]>>[O:1]=[C:2]1[C:3]([H:8])([H:9])[C:4]([H:10])([H:11])[C:6]([H:13])([H:14])[C:5]([H:12])=[C:7]1[H:15]"
O       -0.41886202       2.74701379       0.09160971
C       -0.22080075       1.54419199       0.14690893
C       -1.24792653       0.51585420      -0.35025230
C       -0.75968501      -0.81906423       0.16150449
C        0.89551466      -0.56518549       0.57624132
C        1.23047531      -0.92861609      -0.77720078
C        0.88233272       0.86420495       0.74357403
H       -1.34698288       0.55357204      -1.43538285
H       -2.21686727       0.77690908       0.07742113
H       -1.14145420      -1.05397005       1.15472010
H       -0.96895997      -1.67322915      -0.47492008
H        1.18700257      -1.24932745       1.37490861
H        1.52807066      -0.18617743      -1.50616549
H        1.01607630      -1.92083562      -1.15810699
H        1.58206641       1.39465945       1.37514018
15
Frame=2 idx=010619 GeodesicLength=0.15249939208649782 rxn_smarts="[O:1]=[C:2]1[C:3]([H:8])([H:9])[C:4]([H:10])([H:11])[C@@:5]2([H:12])[C:6]([H:13])([H:14])[C@@:7]12[H:15]>>[O:1]=[C:2]1[C:3]([H:8])([H:9])[C:4]([H:10])([H:11])[C:6]([H:13])([H:14])[C:5]([H:12])=[C:7]1[H:15]"
O       -0.42522927       2.74466413       0.12266712
C       -0.22376212       1.54260157       0.15733493
C       -1.24813975       0.51905940      -0.35108601
C       -0.76380558      -0.82346290       0.14744069
C        0.89194765      -0.56787535       0.59588018
C        1.21746988      -0.91664997      -0.76418807
C        0.89787170       0.86192734       0.72621339
H       -1.33838112       0.56770305      -1.43687356
H       -2.22021251       0.77846252       0.07005330
H       -1.15859330      -1.06576610       1.13413354
H       -0.98442832      -1.66944370      -0.49669249
H        1.20129756      -1.24330578       1.39358056
H        1.48038846      -0.19322266      -1.52462489
H        1.06559872      -1.93082167      -1.11688670
H        1.60797801       1.39613014       1.34304801
15
Frame=3 idx=010619 GeodesicLength=0.2285288246803905 rxn_smarts="[O:1]=[C:2]1[C:3]([H:8])([H:9])[C:4]([H:10])([H:11])[C@@:5]2([H:12])[C:6]([H:13])([H:14])[C@@:7]12[H:15]>>[O:1]=[C:2]1[C:3]([H:8])([H:9])[C:4]([H:10])([H:11])[C:6]([H:13])([H:14])[C:5]([H:12])=[C:7]1[H:15]"
O       -0.43106410       2.74158949       0.15381286
C       -0.22635403       1.54060548       0.16730097
C       -1.24849057       0.52209082      -0.35183426
C       -0.76801917      -0.82797519       0.13337950
C        0.88807955      -0.57009908       0.61541280
C        1.20432060      -0.90560558      -0.75093537
C        0.91299310       0.85925905       0.70842721
H       -1.33010883       0.58152856      -1.43809652
H       -2.22346197       0.78022418       0.06296186
H       -1.17547026      -1.07756133       1.11345280
H       -1.00011187      -1.66549469      -0.51842923
H        1.21643422      -1.23614234       1.41187962
H        1.43376837      -0.20324875      -1.54121964
H        1.11455959      -1.93629798      -1.07681572
H        1.63292537       1.39712736       1.31070312
15
Frame=4 idx=010619 GeodesicLength=0.3044105003759167 rxn_smarts="[O:1]=[C:2]1[C:3]([H:8])([H:9])[C:4]([H:10])([H:11])[C@@:5]2([H:12])[C:6]([H:13])([H:14])[C@@:7]12[H:15]>>[O:1]=[C:2]1[C:3]([H:8])([H:9])[C:4]([H:10])([H:11])[C:6]([H:13])([H:14])[C:5]([H:12])=[C:7]1[H:15]"
O       -0.43621618       2.73769762       0.18480211
C       -0.22855584       1.53816588       0.17676416
C       -1.24892344       0.52492586      -0.35247614
C       -0.77230527      -0.83256041       0.11936459
C        0.88391285      -0.57184305       0.63480405
C        1.19098757      -0.89537192      -0.73753836
C        0.92755378       0.85612430       0.69040424
H       -1.32209710       0.59496791      -1.43903480
H       -2.22652700       0.78220042       0.05619655
H       -1.19204886      -1.08924910       1.09275591
H       -1.01603541      -1.66131570      -0.54003766
H        1.23235581      -1.22784894       1.42961989
H        1.38827107      -0.21591614      -1.55595313
H        1.16289033      -1.93754585      -1.03797059
H        1.65673769       1.39756912       1.27829917
15
Frame=5 idx=010619 GeodesicLength=0.38020367008051986 rxn_smarts="[O:1]=[C:2]1[C:3]([H:8])([H:9])[C:4]([H:10])([H:11])[C@@:5]2([H:12])[C:6]([H:13])([H:14])[C@@:7]12[H:15]>>[O:1]=[C:2]1[C:3]([H:8])([H:9])[C:4]([H:10])([H:11])[C:6]([H:13])([H:14])[C:5]([H:12])=[C:7]1[H:15]"
O       -0.44055135       2.73309987       0.21534166
C       -0.23035396       1.53535072       0.18565662
C       -1.24947569       0.52757298      -0.35302292
C       -0.77669884      -0.83724182       0.10543433
C        0.87952834      -0.57315170       0.65401931
C        1.17743427      -0.88588604      -0.72409774
C        0.94152654       0.85250399       0.67232358
H       -1.31442618       0.60798260      -1.43971761
H       -2.22945293       0.78442956       0.04976749
H       -1.20832397      -1.10080540       1.07213349
H       -1.03230962      -1.65696334      -0.56142333
H        1.24912762      -1.21856278       1.44663291
H        1.34401846      -0.23086269      -1.56885500
H        1.21061405      -1.93488755      -1.00038030
H        1.67934325       1.39742161       1.24618751
15
Frame=6 idx=010619 GeodesicLength=0.4558852713544683 rxn_smarts="[O:1]=[C:2]1[C:3]([H:8])([H:9])[C:4]([H:10])([H:11])[C@@:5]2([H:12])[C:6]([H:13])([H:14])[C@@:7]12[H:15]>>[O:1]=[C:2]1[C:3]([H:8])([H:9])[C:4]([H:10])([H:11])[C:6]([H:13])([H:14])[C:5]([H:12])=[C:7]1[H:15]"
O       -0.44397075       2.72783091       0.24514689
C       -0.23174127       1.53217761       0.19392555
C       -1.25012599       0.53001067      -0.35348094
C       -0.78120024      -0.84201873       0.09164868
C        0.87498317      -0.57406629       0.67303218
C        1.16362276      -0.87709470      -0.71069004
C        0.95486280       0.84836244       0.65435346
H       -1.30707801       0.62047817      -1.44016960
H       -2.23221054       0.78691252       0.04367516
H       -1.22426531      -1.11214892       1.05169998
H       -1.04898905      -1.65245550      -0.58246333
H        1.26672210      -1.20838554       1.46277151
H        1.30111863      -0.24774125      -1.57994225
H        1.25763042      -1.92850465      -0.96417313
H        1.70064128       1.39664326       1.21466585
15
Frame=7 idx=010619 GeodesicLength=0.5314772568432604 rxn_smarts="[O:1]=[C:2]1[C:3]([H:8])([H:9])[C:4]([H:10])([H:11])[C@@:5]2([H:12])[C:6]([H:13])([H:14])[C@@:7]12[H:15]>>[O:1]=[C:2]1[C:3]([H:8])([H:9])[C:4]([H:10])([H:11])[C:6]([H:13])([H:14])[C:5]([H:12])=[C:7]1[H:15]"
O       -0.44650539       2.72193328       0.27421106
C       -0.23275035       1.52867683       0.20158122
C       -1.25085696       0.53224038      -0.35387144
C       -0.78582796      -0.84689586       0.07803364
C        0.87029416      -0.57464639       0.69186785
C        1.14955251      -0.86898158      -0.69732976
C        0.96751588       0.84366774       0.63664469
H       -1.29997782       0.63244577      -1.44043873
H       -2.23481059       0.78964820       0.03786230
H       -1.23991825      -1.12324800       1.03151744
H       -1.06610263      -1.64779602      -0.60310820
H        1.28502760      -1.19742684       1.47798947
H        1.25957701      -0.26627485      -1.58926442
H        1.30400938      -1.91857729      -0.92933553
H        1.72077339       1.39523463       1.18364041
15
Frame=8 idx=010619 GeodesicLength=0.6070263102455222 rxn_smarts="[O:1]=[C:2]1[C:3]([H:8])([H:9])[C:4]([H:10])([H:11])[C@@:5]2([H:12])[C:6]([H:13])([H:14])[C@@:7]12[H:15]>>[O:1]=[C:2]1[C:3]([H:8])([H:9])[C:4]([H:10])([H:11])[C:6]([H:13])([H:14])[C:5]([H:12])=[C:7]1[H:15]"
O       -0.44796477       2.71541894       0.30202354
C       -0.23338165       1.52481402       0.20863517
C       -1.25165633       0.53420623      -0.35417165
C       -0.79058700      -0.85187811       0.06464461
C        0.86553007      -0.57494489       0.71052413
C        1.13522061      -0.86145796      -0.68401025
C        0.97948639       0.83838238       0.61937312
H       -1.29312893       0.64376032      -1.44048751
H       -2.23723455       0.79258748       0.03233343
H       -1.25527014      -1.13405451       1.01164957
H       -1.08368228      -1.64298928      -0.62324342
H        1.30394886      -1.18581907       1.49216285
H        1.21940823      -0.28608719      -1.59678324
H        1.34962423      -1.90508876      -0.89606992
H        1.73968726       1.39315040       1.15341958
15
Frame=9 idx=010619 GeodesicLength=0.6825181356023232 rxn_smarts="[O:1]=[C:2]1[C:3]([H:8])([H:9])[C:4]([H:10])([H:11])[C@@:5]2([H:12])[C:6]([H:13])([H:14])[C@@:7]12[H:15]>>[O:1]=[C:2]1[C:3]([H:8])([H:9])[C:4]([H:10])([H:11])[C:6]([H:13])([H:14])[C:5]([H:12])=[C:7]1[H:15]"
O       -0.44859716       2.70836478       0.32899230
C       -0.23367258       1.52066950       0.21507379
C       -1.25249367       0.53593661      -0.35445300
C       -0.79548277      -0.85697003       0.05148872
C        0.86072495      -0.57500951       0.72900371
C        1.12061416      -0.85459590      -0.67077117
C        0.99079499       0.83251873       0.60256007
H       -1.28642200       0.65444985      -1.44043613
H       -2.23948936       0.79573719       0.02696693
H       -1.27034250      -1.14451454       0.99216761
H       -1.10175580      -1.63806620      -0.64283862
H        1.32335271      -1.17362420       1.50533488
H        1.18068128      -0.30705209      -1.60263889
H        1.39450729      -1.88826862      -0.86424458
H        1.75758045       1.39042442       1.12379440
15
Frame=10 idx=010619 GeodesicLength=0.7579955570466087 rxn_smarts="[O:1]=[C:2]1[C:3]([H:8])([H:9])[C:4]([H:10])([H:11])[C@@:5]2([H:12])[C:6]([H:13])([H:14])[C@@:7]12[H:15]>>[O:1]=[C:2]1[C:3]([H:8])([H:9])[C:4]([H:10])([H:11])[C:6]([H:13])([H:14])[C:5]([H:12])=[C:7]1[H:15]"
O       -0.44837972       2.70080731       0.35496631
C       -0.23365716       1.51624463       0.22095925
C       -1.25335331       0.53741552      -0.35471295
C       -0.80052019      -0.86218633       0.03859268
C        0.85591849      -0.57489807       0.74734837
C        1.10577916      -0.84837342      -0.65756851
C        1.00146241       0.82606887       0.58629962
H       -1.27979355       0.66449436      -1.44028840
H       -2.24158742       0.79906793       0.02171880
H       -1.28517588      -1.15463663       0.97310475
H       -1.12031529      -1.63303194      -0.66185145
H        1.34305612      -1.16097422       1.51752992
H        1.14333257      -0.32894468      -1.60686960
H        1.43866577      -1.86811832      -0.83394671
H        1.77456800       1.38706499       1.09471791
15
Frame=11 idx=010619 GeodesicLength=0.833450822924941 rxn_smarts="[O:1]=[C:2]1[C:3]([H:8])([H:9])[C:4]([H:10])([H:11])[C@@:5]2([H:12])[C:6]([H:13])([H:14])[C@@:7]12[H:15]>>[O:1]=[C:2]1[C:3]([H:8])([H:9])[C:4]([H:10])([H:11])[C:6]([H:13])([H:14])[C:5]([H:12])=[C:7]1[H:15]"
O       -0.44731297       2.69279962       0.37978582
C       -0.23334870       1.51155009       0.22629553
C       -1.25420710       0.53862446      -0.35496390
C       -0.80568473      -0.86753218       0.02599603
C        0.85118046      -0.57465050       0.76554965
C        1.09073283      -0.84277530      -0.64441342
C        1.01153388       0.81903804       0.57063873
H       -1.27320221       0.67383492      -1.44006943
H       -2.24350737       0.80255596       0.01655315
H       -1.29974298      -1.16437657       0.95454079
H       -1.13934266      -1.62791730      -0.68019190
H        1.36292558      -1.14799882       1.52874231
H        1.10737816      -0.35154445      -1.60955290
H        1.48196458      -1.84466529      -0.80528095
H        1.79063321       1.38305732       1.06637048
15
Frame=12 idx=010619 GeodesicLength=0.9089051795758396 rxn_smarts="[O:1]=[C:2]1[C:3]([H:8])([H:9])[C:4]([H:10])([H:11])[C@@:5]2([H:12])[C:6]([H:13])([H:14])[C@@:7]12[H:15]>>[O:1]=[C:2]1[C:3]([H:8])([H:9])[C:4]([H:10])([H:11])[C:6]([H:13])([H:14])[C:5]([H:12])=[C:7]1[H:15]"
O       -0.44550325       2.68437653       0.40358832
C       -0.23277728       1.50661180       0.23112675
C       -1.25502620       0.53956466      -0.35523481
C       -0.81096653      -0.87301757       0.01370443
C        0.84655248      -0.57429534       0.78363546
C        1.07552298      -0.83781972      -0.63127635
C        1.02105439       0.81144710       0.55558860
H       -1.26655962       0.68247846      -1.43982580
H       -2.24525138       0.80617891       0.01138383
H       -1.31406167      -1.17373369       0.93650132
H       -1.15881307      -1.62273706      -0.69784419
H        1.38279858      -1.13478364       1.53905759
H        1.07278365      -0.37473826      -1.61077354
H        1.52433067      -1.81796677      -0.77824814
H        1.80591624       1.37843460       1.03861653
15
Frame=13 idx=010619 GeodesicLength=0.984430475099964 rxn_smarts="[O:1]=[C:2]1[C:3]([H:8])([H:9])[C:4]([H:10])([H:11])[C@@:5]2([H:12])[C:6]([H:13])([H:14])[C@@:7]12[H:15]>>[O:1]=[C:2]1[C:3]([H:8])([H:9])[C:4]([H:10])([H:11])[C:6]([H:13])([H:14])[C:5]([H:12])=[C:7]1[H:15]"
O       -0.44309473       2.67548879       0.42667212
C       -0.23195522       1.50143717       0.23546886
C       -1.25577133       0.54023046      -0.35557248
C       -0.81635835      -0.87863488       0.00170933
C        0.84206923      -0.57382755       0.80161238
C        1.06017993      -0.83352551      -0.61811787
C        1.03008165       0.80331686       0.54111069
H       -1.25976257       0.69042362      -1.43960050
H       -2.24680568       0.80989881       0.00608941
H       -1.32814751      -1.18267731       0.91898028
H       -1.17871420      -1.61747974      -0.71479483
H        1.40254491      -1.12134519       1.54855228
H        1.03953069      -0.39845926      -1.61059385
H        1.56563456      -1.78806575      -0.75277779
H        1.82056862       1.37321950       1.01126199
15
Frame=14 idx=010619 GeodesicLength=1.0599918040742984 rxn_smarts="[O:1]=[C:2]1[C:3]([H:8])([H:9])[C:4]([H:10])([H:11])[C@@:5]2([H:12])[C:6]([H:13])([H:14])[C@@:7]12[H:15]>>[O:1]=[C:2]1[C:3]([H:8])([H:9])[C:4]([H:10])([H:11])[C:6]([H:13])([H:14])[C:5]([H:12])=[C:7]1[H:15]"
O       -0.43997241       2.66627107       0.44853380
C       -0.23091449       1.49602335       0.23940682
C       -1.25642297       0.54059489      -0.35594289
C       -0.82181472      -0.88440951      -0.00995442
C        0.83781033      -0.57328728       0.81950418
C        1.04478089      -0.82981528      -0.60492271
C        1.03864586       0.79467567       0.52731201
H       -1.25280318       0.69761642      -1.43937324
H       -2.24814974       0.81367894       0.00070589
H       -1.34194906      -1.19124856       0.90203305
H       -1.19894659      -1.61219302      -0.73099754
H        1.42205471      -1.10788558       1.55726690
H        1.00758295      -0.42245362      -1.60907221
H        1.60558542      -1.75499550      -0.72911436
H        1.83451300       1.36742802       0.98461472
15
Frame=15 idx=010619 GeodesicLength=1.1356091362455651 rxn_smarts="[O:1]=[C:2]1[C:3]([H:8])([H:9])[C:4]([H:10])([H:11])[C@@:5]2([H:12])[C:6]([H:13])([H:14])[C@@:7]12[H:15]>>[O:1]=[C:2]1[C:3]([H:8])([H:9])[C:4]([H:10])([H:11])[C:6]([H:13])([H:14])[C:5]([H:12])=[C:7]1[H:15]"
O       -0.43635523       2.65670747       0.46959310
C       -0.22968231       1.49041570       0.24295070
C       -1.25694823       0.54067861      -0.35640760
C       -0.82730737      -0.89033825      -0.02131218
C        0.83382093      -0.57265832       0.83732468
C        1.02939263      -0.82671532      -0.59166997
C        1.04680159       0.78557531       0.51413136
H       -1.24558430       0.70409817      -1.43922048
H       -2.24928603       0.81750375      -0.00488635
H       -1.35546125      -1.19943901       0.88565333
H       -1.21946740      -1.60687948      -0.74647338
H        1.44129717      -1.09439402       1.56530958
H        0.97696990      -0.44670006      -1.60631222
H        1.64392514      -1.71897765      -0.70714812
H        1.84788476       1.36112308       0.95846755
15
Frame=16 idx=010619 GeodesicLength=1.211297260622712 rxn_smarts="[O:1]=[C:2]1[C:3]([H:8])([H:9])[C:4]([H:10])([H:11])[C@@:5]2([H:12])[C:6]([H:13])([H:14])[C@@:7]12[H:15]>>[O:1]=[C:2]1[C:3]([H:8])([H:9])[C:4]([H:10])([H:11])[C:6]([H:13])([H:14])[C:5]([H:12])=[C:7]1[H:15]"
O       -0.43217595       2.64688052       0.48947843
C       -0.22828446       1.48459300       0.24618868
C       -1.25731327       0.54044535      -0.35693437
C       -0.83277980      -0.89642683      -0.03235321
C        0.83016495      -0.57193419       0.85507673
C        1.01409949      -0.82409752      -0.57832748
C        1.05458044       0.77606713       0.50164290
H       -1.23806601       0.70982715      -1.43909343
H       -2.25018395       0.82129379      -0.01067507
H       -1.36863199      -1.20729435       0.86983756
H       -1.24015211      -1.60155521      -0.76119850
H        1.46020698      -1.08100233       1.57268242
H        0.94767697      -0.47095754      -1.60233842
H        1.68022549      -1.68018649      -0.68703260
H        1.86063321       1.35434752       0.93304635
