12
Frame=0 idx=007462 GeodesicLength=0.0 rxn_smarts="[N:1]([c:2]1[c:3]([H:10])[n:4]([H:11])[c:5](=[O:6])[n:7]1[H:12])([H:8])[H:9]>>[N:1]([c:2]1[c:3]([H:10])[n:4][c:5]([O:6][H:11])[n:7]1[H:12])([H:8])[H:9]"
N        2.08577310      -0.24866810      -0.10537445
C        0.71250936       0.02286086      -0.04687482
C       -0.03671357       1.15188013      -0.12446543
N       -1.36730046       0.79198927       0.00021315
C       -1.42171894      -0.52073861       0.14874553
O       -2.63538660      -0.90928508       0.26638369
N       -0.19048285      -1.04855156       0.12961866
H        2.50665592      -0.01663055      -0.99138229
H        2.61214618       0.16254866       0.64941432
H        0.29329578       2.16798442      -0.25951337
H       -2.62655627       0.46055655       0.11348970
H        0.06777831      -2.01394603       0.21974528
12
Frame=1 idx=007462 GeodesicLength=0.03402401670158475 rxn_smarts="[N:1]([c:2]1[c:3]([H:10])[n:4]([H:11])[c:5](=[O:6])[n:7]1[H:12])([H:8])[H:9]>>[N:1]([c:2]1[c:3]([H:10])[n:4][c:5]([O:6][H:11])[n:7]1[H:12])([H:8])[H:9]"
N        2.08708083      -0.24889997      -0.10027196
C        0.71392904       0.02327641      -0.04164319
C       -0.03519650       1.15242470      -0.11306729
N       -1.36803280       0.79075499      -0.01382285
C       -1.42410779      -0.52801237       0.08904687
O       -2.63111963      -0.90973841       0.27939305
N       -0.18869696      -1.04762113       0.12920941
H        2.50315957      -0.03576338      -0.99340095
H        2.61572323       0.18034825       0.64277888
H        0.29394493       2.16895964      -0.24745805
H       -2.63395195       0.46654878       0.13654009
H        0.06726804      -2.01227751       0.23269600
12
Frame=2 idx=007462 GeodesicLength=0.06748219284561019 rxn_smarts="[N:1]([c:2]1[c:3]([H:10])[n:4]([H:11])[c:5](=[O:6])[n:7]1[H:12])([H:8])[H:9]>>[N:1]([c:2]1[c:3]([H:10])[n:4][c:5]([O:6][H:11])[n:7]1[H:12])([H:8])[H:9]"
N        2.08791552      -0.24887335      -0.09214850
C        0.71460893       0.02337944      -0.04045073
C       -0.03447073       1.15222868      -0.10912871
N       -1.36879214       0.78969870      -0.02856042
C       -1.42550207      -0.53253266       0.04819480
O       -2.62430461      -0.91056726       0.29286286
N       -0.18805273      -1.04711252       0.12045467
H        2.50368346      -0.05446455      -0.98977818
H        2.61480317       0.19809011       0.64160302
H        0.29398543       2.16922756      -0.24135047
H       -2.63916044       0.47204960       0.16340768
H        0.06528622      -2.01112374       0.23489398
12
Frame=3 idx=007462 GeodesicLength=0.10149989766074419 rxn_smarts="[N:1]([c:2]1[c:3]([H:10])[n:4]([H:11])[c:5](=[O:6])[n:7]1[H:12])([H:8])[H:9]>>[N:1]([c:2]1[c:3]([H:10])[n:4][c:5]([O:6][H:11])[n:7]1[H:12])([H:8])[H:9]"
N        2.08870726      -0.24877836      -0.08368494
C        0.71514545       0.02337959      -0.04041634
C       -0.03396686       1.15186477      -0.10733552
N       -1.36948381       0.78910804      -0.04008701
C       -1.42654330      -0.53585007       0.01748175
O       -2.61728467      -0.91166083       0.30421241
N       -0.18748297      -1.04675430       0.11044851
H        2.50514380      -0.07332020      -0.98501612
H        2.61310223       0.21590058       0.64074923
H        0.29382619       2.16943814      -0.23681791
H       -2.64420226       0.47706245       0.18694865
H        0.06303893      -2.01038980       0.23351729
12
Frame=4 idx=007462 GeodesicLength=0.13555544369170877 rxn_smarts="[N:1]([c:2]1[c:3]([H:10])[n:4]([H:11])[c:5](=[O:6])[n:7]1[H:12])([H:8])[H:9]>>[N:1]([c:2]1[c:3]([H:10])[n:4][c:5]([O:6][H:11])[n:7]1[H:12])([H:8])[H:9]"
N        2.08936210      -0.24858128      -0.07475842
C        0.71553500       0.02332427      -0.04142513
C       -0.03365649       1.15135144      -0.10755102
N       -1.37018600       0.78874399      -0.04999289
C       -1.42747126      -0.53856652      -0.00857600
O       -2.61008216      -0.91291851       0.31407495
N       -0.18696324      -1.04648501       0.09896679
H        2.50742520      -0.09244798      -0.97899070
H        2.61055783       0.23380646       0.64030098
H        0.29346754       2.16960591      -0.23331776
H       -2.64863006       0.48187285       0.21069812
H        0.06064153      -2.00970561       0.23057107
12
Frame=5 idx=007462 GeodesicLength=0.16973000402317479 rxn_smarts="[N:1]([c:2]1[c:3]([H:10])[n:4]([H:11])[c:5](=[O:6])[n:7]1[H:12])([H:8])[H:9]>>[N:1]([c:2]1[c:3]([H:10])[n:4][c:5]([O:6][H:11])[n:7]1[H:12])([H:8])[H:9]"
N        2.08989540      -0.24822061      -0.06493010
C        0.71577279       0.02323846      -0.04344915
C       -0.03352046       1.15070599      -0.11016734
N       -1.37096961       0.78858411      -0.05862061
C       -1.42854661      -0.54090452      -0.03201914
O       -2.60269472      -0.91425130       0.32329166
N       -0.18651921      -1.04627392       0.08620930
H        2.51076744      -0.11214906      -0.97123970
H        2.60708537       0.25216177       0.64060909
H        0.29292551       2.16974207      -0.23129489
H       -2.65225064       0.48653996       0.23625339
H        0.05805474      -2.00917297       0.22535750
12
Frame=6 idx=007462 GeodesicLength=0.20387621617277848 rxn_smarts="[N:1]([c:2]1[c:3]([H:10])[n:4]([H:11])[c:5](=[O:6])[n:7]1[H:12])([H:8])[H:9]>>[N:1]([c:2]1[c:3]([H:10])[n:4][c:5]([O:6][H:11])[n:7]1[H:12])([H:8])[H:9]"
N        2.09006566      -0.24748105      -0.05093641
C        0.71562425       0.02292069      -0.04939413
C       -0.03368580       1.14958897      -0.12125220
N       -1.37199669       0.78905568      -0.06277806
C       -1.43025461      -0.54237241      -0.05281925
O       -2.59462840      -0.91557349       0.33583718
N       -0.18645056      -1.04647972       0.06677740
H        2.51884241      -0.13238603      -0.95654403
H        2.59924117       0.27145811       0.64692942
H        0.29204292       2.16936258      -0.23788069
H       -2.65383724       0.49134039       0.27143654
H        0.05503689      -2.00943371       0.21062422
12
Frame=7 idx=007462 GeodesicLength=0.23797778189856097 rxn_smarts="[N:1]([c:2]1[c:3]([H:10])[n:4]([H:11])[c:5](=[O:6])[n:7]1[H:12])([H:8])[H:9]>>[N:1]([c:2]1[c:3]([H:10])[n:4][c:5]([O:6][H:11])[n:7]1[H:12])([H:8])[H:9]"
N        2.09012317      -0.24700625      -0.04129494
C        0.71568880       0.02296078      -0.05169046
C       -0.03373813       1.14906569      -0.12408764
N       -1.37278630       0.78907560      -0.07027964
C       -1.43123342      -0.54415466      -0.07312895
O       -2.58703120      -0.91720028       0.34202284
N       -0.18590938      -1.04600709       0.05467374
H        2.52173822      -0.15281022      -0.94807149
H        2.59567729       0.28969446       0.64563596
H        0.29119628       2.16965654      -0.23562590
H       -2.65618920       0.49534929       0.29625970
H        0.05246386      -2.00862386       0.20558678
12
Frame=8 idx=007462 GeodesicLength=0.27217576505394336 rxn_smarts="[N:1]([c:2]1[c:3]([H:10])[n:4]([H:11])[c:5](=[O:6])[n:7]1[H:12])([H:8])[H:9]>>[N:1]([c:2]1[c:3]([H:10])[n:4][c:5]([O:6][H:11])[n:7]1[H:12])([H:8])[H:9]"
N        2.09018232      -0.24650178      -0.03259747
C        0.71584507       0.02313315      -0.05334760
C       -0.03374206       1.14868953      -0.12560368
N       -1.37361246       0.78911749      -0.07745017
C       -1.43197246      -0.54583450      -0.09256817
O       -2.57987183      -0.91903646       0.34557730
N       -0.18521101      -1.04529319       0.04447896
H        2.52357642      -0.17375923      -0.94061512
H        2.59315602       0.30788146       0.64204232
H        0.29033469       2.17016382      -0.23139502
H       -2.65869138       0.49892167       0.31876962
H        0.05000668      -2.00748196       0.20270903
12
Frame=9 idx=007462 GeodesicLength=0.30641935924491825 rxn_smarts="[N:1]([c:2]1[c:3]([H:10])[n:4]([H:11])[c:5](=[O:6])[n:7]1[H:12])([H:8])[H:9]>>[N:1]([c:2]1[c:3]([H:10])[n:4][c:5]([O:6][H:11])[n:7]1[H:12])([H:8])[H:9]"
N        2.09022071      -0.24592647      -0.02449121
C        0.71604609       0.02342080      -0.05463460
C       -0.03374934       1.14841712      -0.12647854
N       -1.37444340       0.78917072      -0.08440182
C       -1.43249099      -0.54742501      -0.11135996
O       -2.57301957      -0.92101164       0.34707821
N       -0.18439707      -1.04439279       0.03562056
H        2.52467737      -0.19536762      -0.93362448
H        2.59133356       0.32618651       0.63656447
H        0.28938841       2.17086436      -0.22550969
H       -2.66117744       0.50213189       0.33987606
H        0.04761164      -2.00606787       0.20136100
12
Frame=10 idx=007462 GeodesicLength=0.3407151163548846 rxn_smarts="[N:1]([c:2]1[c:3]([H:10])[n:4]([H:11])[c:5](=[O:6])[n:7]1[H:12])([H:8])[H:9]>>[N:1]([c:2]1[c:3]([H:10])[n:4][c:5]([O:6][H:11])[n:7]1[H:12])([H:8])[H:9]"
N        2.09021045      -0.24521981      -0.01650932
C        0.71625153       0.02380353      -0.05589393
C       -0.03380809       1.14819086      -0.12755316
N       -1.37529542       0.78924142      -0.09116140
C       -1.43286535      -0.54892538      -0.12959491
O       -2.56635368      -0.92302995       0.34730654
N       -0.18351554      -1.04335717       0.02746047
H        2.52548399      -0.21780247      -0.92636135
H        2.58979752       0.34482036       0.62974694
H        0.28829072       2.17171247      -0.21850861
H       -2.66344241       0.50506311       0.36057272
H        0.04524629      -2.00449697       0.20049602
12
Frame=11 idx=007462 GeodesicLength=0.3750732936312683 rxn_smarts="[N:1]([c:2]1[c:3]([H:10])[n:4]([H:11])[c:5](=[O:6])[n:7]1[H:12])([H:8])[H:9]>>[N:1]([c:2]1[c:3]([H:10])[n:4][c:5]([O:6][H:11])[n:7]1[H:12])([H:8])[H:9]"
N        2.09013697      -0.24434079      -0.00847764
C        0.71644672       0.02428111      -0.05729185
C       -0.03393429       1.14799448      -0.12922480
N       -1.37618772       0.78933235      -0.09780238
C       -1.43313099      -0.55034556      -0.14740495
O       -2.55983468      -0.92505136       0.34654864
N       -0.18258548      -1.04220416       0.01973023
H        2.52616182      -0.24121571      -0.91849635
H        2.58840409       0.36390303       0.62169255
H        0.28699628       2.17270522      -0.21039338
H       -2.66537459       0.50773253       0.38127924
H        0.04290186      -2.00279113       0.19984067
12
Frame=12 idx=007462 GeodesicLength=0.40952827314334456 rxn_smarts="[N:1]([c:2]1[c:3]([H:10])[n:4]([H:11])[c:5](=[O:6])[n:7]1[H:12])([H:8])[H:9]>>[N:1]([c:2]1[c:3]([H:10])[n:4][c:5]([O:6][H:11])[n:7]1[H:12])([H:8])[H:9]"
N        2.08999177      -0.24325412      -0.00035526
C        0.71662357       0.02485907      -0.05897731
C       -0.03414249       1.14782061      -0.13188865
N       -1.37713090       0.78941785      -0.10454814
C       -1.43330343      -0.55172957      -0.16491444
O       -2.55343083      -0.92703854       0.34500052
N       -0.18161354      -1.04094751       0.01230895
H        2.52677023      -0.26581430      -0.90986074
H        2.58711574       0.38356303       0.61225785
H        0.28543959       2.17388284      -0.20060686
H       -2.66690216       0.51016901       0.40208193
H        0.04058243      -2.00092837       0.19950216
12
Frame=13 idx=007462 GeodesicLength=0.4441184038858291 rxn_smarts="[N:1]([c:2]1[c:3]([H:10])[n:4]([H:11])[c:5](=[O:6])[n:7]1[H:12])([H:8])[H:9]>>[N:1]([c:2]1[c:3]([H:10])[n:4][c:5]([O:6][H:11])[n:7]1[H:12])([H:8])[H:9]"
N        2.08974935      -0.24191119       0.00800877
C        0.71677616       0.02554702      -0.06109214
C       -0.03443324       1.14766868      -0.13574981
N       -1.37813859       0.78951024      -0.11144460
C       -1.43340868      -0.55305567      -0.18219869
O       -2.54709038      -0.92892643       0.34291292
N       -0.18059915      -1.03957229       0.00496772
H        2.52744023      -0.29174615      -0.90009447
H        2.58580362       0.40387637       0.60144708
H        0.28352809       2.17512823      -0.18921506
H       -2.66793220       0.51236770       0.42327683
H        0.03830480      -1.99888651       0.19918146
12
Frame=14 idx=007462 GeodesicLength=0.47870283104285855 rxn_smarts="[N:1]([c:2]1[c:3]([H:10])[n:4]([H:11])[c:5](=[O:6])[n:7]1[H:12])([H:8])[H:9]>>[N:1]([c:2]1[c:3]([H:10])[n:4][c:5]([O:6][H:11])[n:7]1[H:12])([H:8])[H:9]"
N        2.08933406      -0.24025039       0.01677388
C        0.71686478       0.02636080      -0.06386678
C       -0.03483799       1.14755651      -0.14110406
N       -1.37922169       0.78960742      -0.11841802
C       -1.43349050      -0.55433791      -0.19928162
O       -2.54072458      -0.93069955       0.34053662
N       -0.17957682      -1.03808625      -0.00252708
H        2.52829753      -0.31907648      -0.88878408
H        2.58431412       0.42487143       0.58936894
H        0.28122580       2.17639385      -0.17639014
H       -2.66823806       0.51436517       0.44517443
H        0.03605334      -1.99670460       0.19851791
12
Frame=15 idx=007462 GeodesicLength=0.5134235480415459 rxn_smarts="[N:1]([c:2]1[c:3]([H:10])[n:4]([H:11])[c:5](=[O:6])[n:7]1[H:12])([H:8])[H:9]>>[N:1]([c:2]1[c:3]([H:10])[n:4][c:5]([O:6][H:11])[n:7]1[H:12])([H:8])[H:9]"
N        2.08889945      -0.23832917       0.02535314
C        0.71699291       0.02732970      -0.06663946
C       -0.03526123       1.14758232      -0.14631655
N       -1.38031696       0.78970564      -0.12548617
C       -1.43338977      -0.55559152      -0.21622325
O       -2.53452987      -0.93240876       0.33721568
N       -0.17846559      -1.03645133      -0.00940305
H        2.52877000      -0.34725476      -0.87676242
H        2.58325997       0.44602234       0.57535596
H        0.27856926       2.17760826      -0.16210296
H       -2.66840955       0.51609407       0.46647828
H        0.03388138      -1.99430681       0.19853080
12
Frame=16 idx=007462 GeodesicLength=0.5481780050600115 rxn_smarts="[N:1]([c:2]1[c:3]([H:10])[n:4]([H:11])[c:5](=[O:6])[n:7]1[H:12])([H:8])[H:9]>>[N:1]([c:2]1[c:3]([H:10])[n:4][c:5]([O:6][H:11])[n:7]1[H:12])([H:8])[H:9]"
N        2.08841923      -0.23616116       0.03384740
C        0.71714245       0.02842692      -0.06954291
C       -0.03571594       1.14774313      -0.15120650
N       -1.38142998       0.78982974      -0.13242062
C       -1.43315406      -0.55677963      -0.23295137
O       -2.52842913      -0.93402849       0.33331824
N       -0.17729384      -1.03469368      -0.01596975
H        2.52905339      -0.37578921      -0.86378459
H        2.58244149       0.46696486       0.55993945
H        0.27562410       2.17867495      -0.14738841
H       -2.66842673       0.51757379       0.48747262
H        0.03176903      -1.99176121       0.19868644
