14
Frame=0 idx=009401 GeodesicLength=0.0 rxn_smarts="[O:1]([C@@:2]1([H:9])[C:3]([H:10])([H:11])[O:4][C:5]([H:12])=[N:6][C:7]1([H:13])[H:14])[H:8]>>[O:1]=[C:2]([C:3]([O:4]/[C:5](=[N:6]\[C:7]([H:8])([H:13])[H:14])[H:12])([H:10])[H:11])[H:9]"
O       -1.24902381      -0.40877816       1.58970727
C       -1.10334115       0.14318177       0.39755641
C       -0.14517181       1.30796725       0.24672620
O        1.18348871       1.01434137       0.65210964
C        1.76956648      -0.04741973       0.08442179
N        1.25927539      -0.99242411      -0.57628200
C       -0.15870884      -1.09612096      -0.72325249
H       -0.75720002      -1.08671125       0.48902596
H       -2.00530773       0.28987679      -0.22250495
H       -0.13499205       1.68864490      -0.77959079
H       -0.50024785       2.08978837       0.91946424
H        2.84086340      -0.03099970       0.26497776
H       -0.54484041      -0.71504532      -1.66658432
H       -0.45436034      -2.15630121      -0.67577469
14
Frame=1 idx=009401 GeodesicLength=0.10781831405488972 rxn_smarts="[O:1]([C@@:2]1([H:9])[C:3]([H:10])([H:11])[O:4][C:5]([H:12])=[N:6][C:7]1([H:13])[H:14])[H:8]>>[O:1]=[C:2]([C:3]([O:4]/[C:5](=[N:6]\[C:7]([H:8])([H:13])[H:14])[H:12])([H:10])[H:11])[H:9]"
O       -1.22767946      -0.40568568       1.60098767
C       -1.10546783       0.15014824       0.40950754
C       -0.14961827       1.31334747       0.23922027
O        1.18278908       1.02595366       0.63250914
C        1.76616661      -0.04974504       0.08682390
N        1.26184221      -0.99427001      -0.57809814
C       -0.15685074      -1.09738799      -0.73194323
H       -0.74773267      -1.11087402       0.49719549
H       -2.02200397       0.29957286      -0.18776946
H       -0.15316370       1.67896760      -0.79272609
H       -0.49795939       2.10518235       0.90363154
H        2.83054309      -0.05308601       0.30586202
H       -0.53103375      -0.70370882      -1.67551673
H       -0.44983121      -2.15841460      -0.70968392
14
Frame=2 idx=009401 GeodesicLength=0.21549143485531486 rxn_smarts="[O:1]([C@@:2]1([H:9])[C:3]([H:10])([H:11])[O:4][C:5]([H:12])=[N:6][C:7]1([H:13])[H:14])[H:8]>>[O:1]=[C:2]([C:3]([O:4]/[C:5](=[N:6]\[C:7]([H:8])([H:13])[H:14])[H:12])([H:10])[H:11])[H:9]"
O       -1.20587607      -0.40272519       1.61161762
C       -1.10756201       0.15761444       0.42151456
C       -0.15397530       1.31877699       0.23157911
O        1.18211615       1.03725859       0.61230708
C        1.76261238      -0.05214899       0.08917930
N        1.26439333      -0.99619553      -0.58001801
C       -0.15504040      -1.09876560      -0.74066116
H       -0.73767418      -1.13590462       0.50541591
H       -2.03832670       0.31004330      -0.15214093
H       -0.17150320       1.66921544      -0.80561417
H       -0.49536096       2.12057082       0.88752128
H        2.81812467      -0.07483986       0.34744500
H       -0.51694737      -0.69274655      -1.68442801
H       -0.44498034      -2.16015324      -0.74371757
14
Frame=3 idx=009401 GeodesicLength=0.3230876206797386 rxn_smarts="[O:1]([C@@:2]1([H:9])[C:3]([H:10])([H:11])[O:4][C:5]([H:12])=[N:6][C:7]1([H:13])[H:14])[H:8]>>[O:1]=[C:2]([C:3]([O:4]/[C:5](=[N:6]\[C:7]([H:8])([H:13])[H:14])[H:12])([H:10])[H:11])[H:9]"
O       -1.18367403      -0.39993377       1.62152637
C       -1.10964277       0.16561290       0.43358121
C       -0.15823311       1.32425740       0.22380801
O        1.18145483       1.04821090       0.59154435
C        1.75890262      -0.05461853       0.09147395
N        1.26692850      -0.99820573      -0.58202443
C       -0.15327708      -1.10027186      -0.74939063
H       -0.72691567      -1.16188351       0.51370978
H       -2.05425294       0.32139398      -0.11559329
H       -0.18998611       1.65938614      -0.81824174
H       -0.49243462       2.13596230       0.87112530
H        2.80348535      -0.09620176       0.38964963
H       -0.50257892      -0.68217646      -1.69329457
H       -0.43977603      -2.16153200      -0.77787392
14
Frame=4 idx=009401 GeodesicLength=0.430675976637668 rxn_smarts="[O:1]([C@@:2]1([H:9])[C:3]([H:10])([H:11])[O:4][C:5]([H:12])=[N:6][C:7]1([H:13])[H:14])[H:8]>>[O:1]=[C:2]([C:3]([O:4]/[C:5](=[N:6]\[C:7]([H:8])([H:13])[H:14])[H:12])([H:10])[H:11])[H:9]"
O       -1.16129865      -0.39735435       1.63060075
C       -1.11177785       0.17419526       0.44567898
C       -0.16236851       1.32976639       0.21596161
O        1.18076627       1.05868792       0.57041679
C        1.75500717      -0.05722852       0.09386506
N        1.26943782      -1.00037266      -0.58397457
C       -0.15156734      -1.10194602      -0.75807310
H       -0.71544048      -1.18891195       0.52209946
H       -2.06975030       0.33378725      -0.07821819
H       -0.20848131       1.64945813      -0.83054406
H       -0.48916428       2.15135108       0.85446225
H        2.78672480      -0.11682732       0.43192019
H       -0.48786166      -0.67202638      -1.70207439
H       -0.43422570      -2.16257884      -0.81212077
14
Frame=5 idx=009401 GeodesicLength=0.5383338337262896 rxn_smarts="[O:1]([C@@:2]1([H:9])[C:3]([H:10])([H:11])[O:4][C:5]([H:12])=[N:6][C:7]1([H:13])[H:14])[H:8]>>[O:1]=[C:2]([C:3]([O:4]/[C:5](=[N:6]\[C:7]([H:8])([H:13])[H:14])[H:12])([H:10])[H:11])[H:9]"
O       -1.13896142      -0.39505164       1.63872541
C       -1.11403767       0.18341164       0.45779116
C       -0.16637257       1.33529204       0.20807565
O        1.18000653       1.06859893       0.54909241
C        1.75089813      -0.06000816       0.09642350
N        1.27190935      -1.00273669      -0.58577690
C       -0.14991824      -1.10382452      -0.76666230
H       -0.70318103      -1.21710295       0.53060789
H       -2.08481571       0.34739280      -0.04004351
H       -0.22689047       1.63941448      -0.84248139
H       -0.48554180       2.16674587       0.83752365
H        2.76799145      -0.13649515       0.47387922
H       -0.47277012      -0.66232274      -1.71071951
H       -0.42831641      -2.16331393      -0.84643529
14
Frame=6 idx=009401 GeodesicLength=0.6461073158158804 rxn_smarts="[O:1]([C@@:2]1([H:9])[C:3]([H:10])([H:11])[O:4][C:5]([H:12])=[N:6][C:7]1([H:13])[H:14])[H:8]>>[O:1]=[C:2]([C:3]([O:4]/[C:5](=[N:6]\[C:7]([H:8])([H:13])[H:14])[H:12])([H:10])[H:11])[H:9]"
O       -1.11682021      -0.39310380       1.64579307
C       -1.11648218       0.19332361       0.46990509
C       -0.17024160       1.34083867       0.20017116
O        1.17914534       1.07788385       0.52769892
C        1.74655369      -0.06296322       0.09919204
N        1.27433029      -1.00528785      -0.58741667
C       -0.14834140      -1.10593230      -0.77511082
H       -0.69001465      -1.24657083       0.53927006
H       -2.09943721       0.36234743      -0.00111451
H       -0.24515696       1.62925152      -0.85403172
H       -0.48156407       2.18215934       0.82030624
H        2.74737272      -0.15510786       0.51528868
H       -0.45732696      -0.65309133      -1.71917354
H       -0.42201679      -2.16374724      -0.88077799
14
Frame=7 idx=009401 GeodesicLength=0.7540199811287396 rxn_smarts="[O:1]([C@@:2]1([H:9])[C:3]([H:10])([H:11])[O:4][C:5]([H:12])=[N:6][C:7]1([H:13])[H:14])[H:8]>>[O:1]=[C:2]([C:3]([O:4]/[C:5](=[N:6]\[C:7]([H:8])([H:13])[H:14])[H:12])([H:10])[H:11])[H:9]"
O       -1.09504016      -0.39160232       1.65169845
C       -1.11916506       0.20399064       0.48201506
C       -0.17397781       1.34640931       0.19226133
O        1.17814963       1.08650129       0.50636100
C        1.74195735      -0.06608385       0.10219950
N        1.27669970      -1.00800047      -0.58889236
C       -0.14684210      -1.10829306      -0.78338701
H       -0.67582173      -1.27743821       0.54809225
H       -2.11360365       0.37881067       0.03858306
H       -0.26322710       1.61895257      -0.86518828
H       -0.47723294       2.19760514       0.80278510
H        2.72496215      -0.17260091       0.55595972
H       -0.44156882      -0.64435450      -1.72738707
H       -0.41528946      -2.16389630      -0.91510074
14
Frame=8 idx=009401 GeodesicLength=0.8620903862943535 rxn_smarts="[O:1]([C@@:2]1([H:9])[C:3]([H:10])([H:11])[O:4][C:5]([H:12])=[N:6][C:7]1([H:13])[H:14])[H:8]>>[O:1]=[C:2]([C:3]([O:4]/[C:5](=[N:6]\[C:7]([H:8])([H:13])[H:14])[H:12])([H:10])[H:11])[H:9]"
O       -1.07388892      -0.39066538       1.65627346
C       -1.12218490       0.21549277       0.49409414
C       -0.17758630       1.35200562       0.18438175
O        1.17696750       1.09437585       0.48528631
C        1.73706556      -0.06939459       0.10552340
N        1.27899552      -1.01087118      -0.59016657
C       -0.14543876      -1.11094459      -0.79142953
H       -0.66046488      -1.30983456       0.55711574
H       -2.12732446       0.39697121       0.07898481
H       -0.28100594       1.60851306      -0.87592032
H       -0.47255799       2.21310120       0.78495331
H        2.70106912      -0.18882175       0.59552054
H       -0.42553116      -0.63614440      -1.73528231
H       -0.40811437      -2.16378328      -0.94933474
14
Frame=9 idx=009401 GeodesicLength=0.9707114663483087 rxn_smarts="[O:1]([C@@:2]1([H:9])[C:3]([H:10])([H:11])[O:4][C:5]([H:12])=[N:6][C:7]1([H:13])[H:14])[H:8]>>[O:1]=[C:2]([C:3]([O:4]/[C:5](=[N:6]\[C:7]([H:8])([H:13])[H:14])[H:12])([H:10])[H:11])[H:9]"
O       -1.05395588      -0.39059010       1.65893670
C       -1.12575331       0.22807081       0.50608102
C       -0.18107473       1.35767800       0.17661611
O        1.17547727       1.10141562       0.46492555
C        1.73181391      -0.07289008       0.10925616
N        1.28120110      -1.01377112      -0.59132321
C       -0.14419022      -1.11396008      -0.79903463
H       -0.64353000      -1.34405054       0.56653158
H       -2.14064315       0.41716485       0.11996977
H       -0.29832629       1.59795839      -0.88620609
H       -0.46752654       2.22874755       0.76678627
H        2.67634837      -0.20370833       0.63339400
H       -0.40943310      -0.62854885      -1.74265553
H       -0.40040742      -2.16351612      -0.98327771
14
Frame=10 idx=009401 GeodesicLength=1.0794236925793506 rxn_smarts="[O:1]([C@@:2]1([H:9])[C:3]([H:10])([H:11])[O:4][C:5]([H:12])=[N:6][C:7]1([H:13])[H:14])[H:8]>>[O:1]=[C:2]([C:3]([O:4]/[C:5](=[N:6]\[C:7]([H:8])([H:13])[H:14])[H:12])([H:10])[H:11])[H:9]"
O       -1.03502880      -0.39132615       1.65994940
C       -1.12977165       0.24163596       0.51807275
C       -0.18447260       1.36341876       0.16887635
O        1.17373127       1.10772916       0.44507532
C        1.72623599      -0.07648746       0.11323167
N        1.28332969      -1.01667671      -0.59242438
C       -0.14306062      -1.11731321      -0.80633812
H       -0.62494498      -1.38005474       0.57618951
H       -2.15350678       0.43938065       0.16175137
H       -0.31531764       1.58724031      -0.89610156
H       -0.46218250       2.24452085       0.74818850
H        2.65043442      -0.21751631       0.67012525
H       -0.39329707      -0.62152524      -1.74957324
H       -0.39214874      -2.16302588      -1.01702281
14
Frame=11 idx=009401 GeodesicLength=1.1881660652768962 rxn_smarts="[O:1]([C@@:2]1([H:9])[C:3]([H:10])([H:11])[O:4][C:5]([H:12])=[N:6][C:7]1([H:13])[H:14])[H:8]>>[O:1]=[C:2]([C:3]([O:4]/[C:5](=[N:6]\[C:7]([H:8])([H:13])[H:14])[H:12])([H:10])[H:11])[H:9]"
O       -1.01731846      -0.39299792       1.65914963
C       -1.13428986       0.25626623       0.53008855
C       -0.18779790       1.36924561       0.16116281
O        1.17169782       1.11333232       0.42586398
C        1.72032107      -0.08015280       0.11743020
N        1.28538572      -1.01951393      -0.59353405
C       -0.14205596      -1.12102700      -0.81330801
H       -0.60445542      -1.41795645       0.58609410
H       -2.16589451       0.46377934       0.20438901
H       -0.33194960       1.57633809      -0.90562438
H       -0.45654554       2.26045392       0.72909760
H        2.62343933      -0.23033633       0.70567421
H       -0.37724266      -0.61509253      -1.75597123
H       -0.38329404      -2.16233854      -1.05051242
14
Frame=12 idx=009401 GeodesicLength=1.2968645379885717 rxn_smarts="[O:1]([C@@:2]1([H:9])[C:3]([H:10])([H:11])[O:4][C:5]([H:12])=[N:6][C:7]1([H:13])[H:14])[H:8]>>[O:1]=[C:2]([C:3]([O:4]/[C:5](=[N:6]\[C:7]([H:8])([H:13])[H:14])[H:12])([H:10])[H:11])[H:9]"
O       -1.00108059      -0.39573842       1.65636257
C       -1.13937724       0.27204408       0.54215175
C       -0.19107227       1.37517613       0.15348386
O        1.16933799       1.11823153       0.40745470
C        1.71403919      -0.08387883       0.12187149
N        1.28736480      -1.02222229      -0.59469855
C       -0.14118734      -1.12513251      -0.81990134
H       -0.58180676      -1.45785586       0.59626164
H       -2.17779235       0.49051198       0.24788371
H       -0.34818373       1.56523768      -0.91477551
H       -0.45063759       2.27658454       0.70944528
H        2.59560604      -0.24222585       0.73992133
H       -0.36138877      -0.60926394      -1.76177375
H       -0.37382137      -2.16146823      -1.08368717
14
Frame=13 idx=009401 GeodesicLength=1.4054788578653115 rxn_smarts="[O:1]([C@@:2]1([H:9])[C:3]([H:10])([H:11])[O:4][C:5]([H:12])=[N:6][C:7]1([H:13])[H:14])[H:8]>>[O:1]=[C:2]([C:3]([O:4]/[C:5](=[N:6]\[C:7]([H:8])([H:13])[H:14])[H:12])([H:10])[H:11])[H:9]"
O       -0.98653235      -0.39968044       1.65139652
C       -1.14505644       0.28904953       0.55429715
C       -0.19431221       1.38123163       0.14581726
O        1.16663618       1.12247564       0.38993804
C        1.70739046      -0.08763809       0.12653547
N        1.28929227      -1.02470785      -0.59601629
C       -0.14044419      -1.12965986      -0.82610168
H       -0.55668463      -1.49985452       0.60667123
H       -2.18914597       0.51972844       0.29239941
H       -0.36401976       1.55391153      -0.92359769
H       -0.44447126       2.29294946       0.68913135
H        2.56692777      -0.25333264       0.77295129
H       -0.34588326      -0.60404526      -1.76693720
H       -0.36369662      -2.16042757      -1.11648487
14
Frame=14 idx=009401 GeodesicLength=1.5139839757810494 rxn_smarts="[O:1]([C@@:2]1([H:9])[C:3]([H:10])([H:11])[O:4][C:5]([H:12])=[N:6][C:7]1([H:13])[H:14])[H:8]>>[O:1]=[C:2]([C:3]([O:4]/[C:5](=[N:6]\[C:7]([H:8])([H:13])[H:14])[H:12])([H:10])[H:11])[H:9]"
O       -0.97396281      -0.40497404       1.64400568
C       -1.15135902       0.30737881       0.56657956
C       -0.19754031       1.38743185       0.13815948
O        1.16355911       1.12609888       0.37343495
C        1.70035726      -0.09140288       0.13141669
N        1.29118845      -1.02688578      -0.59756274
C       -0.13982524      -1.13465185      -0.83187594
H       -0.52877648      -1.54404306       0.61730966
H       -2.19986854       0.55161829       0.33804817
H       -0.37946125       1.54232292      -0.93210018
H       -0.43806130       2.30958516       0.66805650
H        2.53752294      -0.26377217       0.80478088
H       -0.33088845      -0.59945640      -1.77140271
H       -0.35288436      -2.15924972      -1.14884999
14
Frame=15 idx=009401 GeodesicLength=1.6223185085996328 rxn_smarts="[O:1]([C@@:2]1([H:9])[C:3]([H:10])([H:11])[O:4][C:5]([H:12])=[N:6][C:7]1([H:13])[H:14])[H:8]>>[O:1]=[C:2]([C:3]([O:4]/[C:5](=[N:6]\[C:7]([H:8])([H:13])[H:14])[H:12])([H:10])[H:11])[H:9]"
O       -0.96369009      -0.41175588       1.63394001
C       -1.15831597       0.32711968       0.57905029
C       -0.20078440       1.39378906       0.13050539
O        1.16007368       1.12913547       0.35805623
C        1.69291275      -0.09516748       0.13653956
N        1.29307037      -1.02869246      -0.59938486
C       -0.13932112      -1.14015330      -0.83719823
H       -0.49780186      -1.59045788       0.62813075
H       -2.20984586       0.58634152       0.38498590
H       -0.39452332       1.53043563      -0.94029609
H       -0.43142693       2.32651700       0.64611764
H        2.50754936      -0.27363947       0.83540822
H       -0.31653154      -0.59550881      -1.77512610
H       -0.34136508      -2.15796307      -1.18072871
14
Frame=16 idx=009401 GeodesicLength=1.7304984325082056 rxn_smarts="[O:1]([C@@:2]1([H:9])[C:3]([H:10])([H:11])[O:4][C:5]([H:12])=[N:6][C:7]1([H:13])[H:14])[H:8]>>[O:1]=[C:2]([C:3]([O:4]/[C:5](=[N:6]\[C:7]([H:8])([H:13])[H:14])[H:12])([H:10])[H:11])[H:9]"
O       -0.95604604      -0.42015249       1.62090427
C       -1.16591977       0.34835868       0.59179669
C       -0.20407212       1.40031407       0.12283013
O        1.15615550       1.13163703       0.34386249
C        1.68504233      -0.09891555       0.14191736
N        1.29497763      -1.03006004      -0.60153635
C       -0.13890235      -1.14621730      -0.84206358
H       -0.46346471      -1.63911906       0.63905856
H       -2.21890256       0.62406820       0.43348762
H       -0.40926934       1.51819782      -0.94821097
H       -0.42457922       2.34376531       0.62318520
H        2.47702626      -0.28306226       0.86493771
H       -0.30293683      -0.59221358      -1.77809009
H       -0.32910878      -2.15660084      -1.21207904
