10
Frame=0 idx=011281 GeodesicLength=0.0 rxn_smarts="[O:1]=[C:2]([c:3]1[n:4][c:5]([H:9])[c:6]([H:10])[o:7]1)[H:8]>>[O+:1]#[C-:2].[c-:3]1[n:4]([H:8])[c:5]([H:9])[c:6]([H:10])[o+:7]1"
O        3.36066137       0.48312932       0.34649330
C        2.38905867      -0.07629942       0.12423461
C        0.51560144       0.57509955       0.20371153
N        0.16272173      -0.62720599      -0.17300725
C       -1.21105383      -0.67773345      -0.27424221
C       -1.65745488       0.54521163       0.05859929
O       -0.58180729       1.33149869       0.35820827
H        1.41691218      -0.98940226      -0.20343520
H       -1.75950392      -1.55617833      -0.56826919
H       -2.63513548       0.99188027       0.12770684
10
Frame=1 idx=011281 GeodesicLength=0.03872225258521 rxn_smarts="[O:1]=[C:2]([c:3]1[n:4][c:5]([H:9])[c:6]([H:10])[o:7]1)[H:8]>>[O+:1]#[C-:2].[c-:3]1[n:4]([H:8])[c:5]([H:9])[c:6]([H:10])[o+:7]1"
O        3.36055615       0.49606587       0.35397725
C        2.39618284      -0.06747712       0.10708657
C        0.51263082       0.55537025       0.24641751
N        0.15737675      -0.63857396      -0.15708106
C       -1.21563055      -0.67780920      -0.27556034
C       -1.65670153       0.54835286       0.05248452
O       -0.57716912       1.33278399       0.34116444
H        1.42299412      -0.99272932      -0.22561643
H       -1.76796442      -1.55540115      -0.56488363
H       -2.63227507       0.99941779       0.12201118
10
Frame=2 idx=011281 GeodesicLength=0.07751442521580848 rxn_smarts="[O:1]=[C:2]([c:3]1[n:4][c:5]([H:9])[c:6]([H:10])[o:7]1)[H:8]>>[O+:1]#[C-:2].[c-:3]1[n:4]([H:8])[c:5]([H:9])[c:6]([H:10])[o+:7]1"
O        3.35922990       0.51166732       0.35673034
C        2.40166386      -0.05799712       0.09362789
C        0.50919014       0.53467088       0.28653082
N        0.15180042      -0.65106939      -0.14181331
C       -1.22031747      -0.67848565      -0.27616904
C       -1.65418584       0.55382172       0.03814852
O       -0.57083214       1.33056243       0.33166159
H        1.42839219      -0.99631447      -0.24476505
H       -1.77726763      -1.55441668      -0.56165161
H       -2.62767344       1.00756095       0.11769985
10
Frame=3 idx=011281 GeodesicLength=0.11648108729054694 rxn_smarts="[O:1]=[C:2]([c:3]1[n:4][c:5]([H:9])[c:6]([H:10])[o:7]1)[H:8]>>[O+:1]#[C-:2].[c-:3]1[n:4]([H:8])[c:5]([H:9])[c:6]([H:10])[o+:7]1"
O        3.35690949       0.52778615       0.35907889
C        2.40599343      -0.04617222       0.07757888
C        0.50571927       0.51393283       0.32285871
N        0.14610291      -0.66427881      -0.12704797
C       -1.22512048      -0.67984842      -0.27506688
C       -1.65097399       0.55825002       0.02727662
O       -0.56346453       1.32618824       0.32701716
H        1.43332175      -1.00064685      -0.26024083
H       -1.78688465      -1.55279346      -0.56023004
H       -2.62160319       1.01758252       0.10877545
10
Frame=4 idx=011281 GeodesicLength=0.15559876410212822 rxn_smarts="[O:1]=[C:2]([c:3]1[n:4][c:5]([H:9])[c:6]([H:10])[o:7]1)[H:8]>>[O+:1]#[C-:2].[c-:3]1[n:4]([H:8])[c:5]([H:9])[c:6]([H:10])[o+:7]1"
O        3.35386341       0.54435023       0.36092581
C        2.40938871      -0.03361159       0.06271375
C        0.50237091       0.49335709       0.35554832
N        0.14042074      -0.67753008      -0.11426942
C       -1.22996956      -0.68142050      -0.27362797
C       -1.64717394       0.56221731       0.01792151
O       -0.55552748       1.32037043       0.32603159
H        1.43807803      -1.00506020      -0.27470086
H       -1.79691122      -1.55124867      -0.55804873
H       -2.61453960       1.02857599       0.09750600
10
Frame=5 idx=011281 GeodesicLength=0.19478385744118226 rxn_smarts="[O:1]=[C:2]([c:3]1[n:4][c:5]([H:9])[c:6]([H:10])[o:7]1)[H:8]>>[O+:1]#[C-:2].[c-:3]1[n:4]([H:8])[c:5]([H:9])[c:6]([H:10])[o+:7]1"
O        3.35049747       0.56074540       0.36359438
C        2.41232829      -0.02118444       0.04996236
C        0.49935625       0.47390829       0.38310575
N        0.13483448      -0.69024285      -0.10412897
C       -1.23483027      -0.68293753      -0.27245027
C       -1.64323150       0.56565206       0.01036248
O       -0.54744919       1.31412561       0.32599606
H        1.44282170      -1.00971099      -0.28820914
H       -1.80717422      -1.54983848      -0.55496911
H       -2.60715301       1.03948293       0.08673645
10
Frame=6 idx=011281 GeodesicLength=0.23389004586525436 rxn_smarts="[O:1]=[C:2]([c:3]1[n:4][c:5]([H:9])[c:6]([H:10])[o:7]1)[H:8]>>[O+:1]#[C-:2].[c-:3]1[n:4]([H:8])[c:5]([H:9])[c:6]([H:10])[o+:7]1"
O        3.34727873       0.57609146       0.36813386
C        2.41531689      -0.00951762       0.03971555
C        0.49681871       0.45666346       0.40449809
N        0.12936305      -0.70206873      -0.09613802
C       -1.23972283      -0.68443295      -0.27109751
C       -1.63960250       0.56854403       0.00447164
O       -0.53959446       1.30842372       0.32427905
H        1.44758900      -1.01454403      -0.30099573
H       -1.81727387      -1.54845167      -0.55183090
H       -2.60017273       1.04929233       0.07896397
10
Frame=7 idx=011281 GeodesicLength=0.2729337736823322 rxn_smarts="[O:1]=[C:2]([c:3]1[n:4][c:5]([H:9])[c:6]([H:10])[o:7]1)[H:8]>>[O+:1]#[C-:2].[c-:3]1[n:4]([H:8])[c:5]([H:9])[c:6]([H:10])[o+:7]1"
O        3.34418089       0.59072534       0.37372031
C        2.41834977       0.00180010       0.03088293
C        0.49460779       0.44073389       0.42219544
N        0.12395937      -0.71332098      -0.08954819
C       -1.24465108      -0.68593017      -0.26954291
C       -1.63618442       0.57105684      -0.00026764
O       -0.53196827       1.30286302       0.32224654
H        1.45239966      -1.01940585      -0.31354044
H       -1.82729658      -1.54714397      -0.54834374
H       -2.59339714       1.05862178       0.07219770
10
Frame=8 idx=011281 GeodesicLength=0.3119162540834337 rxn_smarts="[O:1]=[C:2]([c:3]1[n:4][c:5]([H:9])[c:6]([H:10])[o:7]1)[H:8]>>[O+:1]#[C-:2].[c-:3]1[n:4]([H:8])[c:5]([H:9])[c:6]([H:10])[o+:7]1"
O        3.34129708       0.60421300       0.38095868
C        2.42148623       0.01309382       0.02284258
C        0.49268989       0.42589902       0.43698795
N        0.11865062      -0.72402543      -0.08421025
C       -1.24961996      -0.68749091      -0.26763856
C       -1.63299824       0.57321446      -0.00404342
O       -0.52464967       1.29739028       0.32013966
H        1.45726665      -1.02378603      -0.32694393
H       -1.83730688      -1.54615829      -0.54368379
H       -2.58681571       1.06765007       0.06559108
10
Frame=9 idx=011281 GeodesicLength=0.3508700808922217 rxn_smarts="[O:1]=[C:2]([c:3]1[n:4][c:5]([H:9])[c:6]([H:10])[o:7]1)[H:8]>>[O+:1]#[C-:2].[c-:3]1[n:4]([H:8])[c:5]([H:9])[c:6]([H:10])[o+:7]1"
O        3.33848358       0.61716113       0.38874498
C        2.42458694       0.02457883       0.01517631
C        0.49098221       0.41144663       0.45035649
N        0.11338297      -0.73449683      -0.07962546
C       -1.25466040      -0.68918195      -0.26519836
C       -1.62989833       0.57505389      -0.00685944
O       -0.51754018       1.29165042       0.31902171
H        1.46215272      -1.02776735      -0.34105282
H       -1.84737359      -1.54534349      -0.53824784
H       -2.58011593       1.07689873       0.05768443
10
Frame=10 idx=011281 GeodesicLength=0.3898189772274643 rxn_smarts="[O:1]=[C:2]([c:3]1[n:4][c:5]([H:9])[c:6]([H:10])[o:7]1)[H:8]>>[O+:1]#[C-:2].[c-:3]1[n:4]([H:8])[c:5]([H:9])[c:6]([H:10])[o+:7]1"
O        3.33568624       0.62958344       0.39718020
C        2.42761129       0.03643494       0.00770783
C        0.48944717       0.39703171       0.46286175
N        0.10816566      -0.74481329      -0.07586973
C       -1.25976409      -0.69098320      -0.26239658
C       -1.62682412       0.57660357      -0.00881022
O       -0.51061123       1.28549923       0.31929252
H        1.46706038      -1.03109294      -0.35639811
H       -1.85764278      -1.54482923      -0.53138966
H       -2.57312852       1.08656578       0.04782202
10
Frame=11 idx=011281 GeodesicLength=0.4287804573937596 rxn_smarts="[O:1]=[C:2]([c:3]1[n:4][c:5]([H:9])[c:6]([H:10])[o:7]1)[H:8]>>[O+:1]#[C-:2].[c-:3]1[n:4]([H:8])[c:5]([H:9])[c:6]([H:10])[o+:7]1"
O        3.33281350       0.64163651       0.40605941
C        2.43045625       0.04883807       0.00025976
C        0.48804781       0.38232437       0.47500964
N        0.10297906      -0.75509643      -0.07288565
C       -1.26493322      -0.69289768      -0.25929961
C       -1.62369445       0.57788081      -0.00991801
O       -0.50380113       1.27879862       0.32129448
H        1.47196730      -1.03370056      -0.37303981
H       -1.86820238      -1.54460203      -0.52298503
H       -2.56563275       1.09681832       0.03550481
10
Frame=12 idx=011281 GeodesicLength=0.4676472898797523 rxn_smarts="[O:1]=[C:2]([c:3]1[n:4][c:5]([H:9])[c:6]([H:10])[o:7]1)[H:8]>>[O+:1]#[C-:2].[c-:3]1[n:4]([H:8])[c:5]([H:9])[c:6]([H:10])[o+:7]1"
O        3.33025051       0.65294837       0.41528474
C        2.43350883       0.06076711      -0.00626746
C        0.48686789       0.36914406       0.48464223
N        0.09772914      -0.76503574      -0.06957031
C       -1.27013160      -0.69480335      -0.25576924
C       -1.62091461       0.57904836      -0.01083442
O       -0.49715976       1.27292461       0.32067316
H        1.47683200      -1.03686261      -0.38817610
H       -1.87823422      -1.54396308      -0.51651480
H       -2.55874819       1.10583228       0.02653221
10
Frame=13 idx=011281 GeodesicLength=0.5064638822494544 rxn_smarts="[O:1]=[C:2]([c:3]1[n:4][c:5]([H:9])[c:6]([H:10])[o:7]1)[H:8]>>[O+:1]#[C-:2].[c-:3]1[n:4]([H:8])[c:5]([H:9])[c:6]([H:10])[o+:7]1"
O        3.32794513       0.66362538       0.42486245
C        2.43674058       0.07239299      -0.01210375
C        0.48586395       0.35711132       0.49242255
N        0.09242628      -0.77469782      -0.06606035
C       -1.27535787      -0.69669377      -0.25191232
C       -1.61839197       0.58013477      -0.01163150
O       -0.49065048       1.26762561       0.31820250
H        1.48168210      -1.04036900      -0.40240186
H       -1.88789882      -1.54307664      -0.51126377
H       -2.55235889       1.11394715       0.01988603
10
Frame=14 idx=011281 GeodesicLength=0.5452505874316634 rxn_smarts="[O:1]=[C:2]([c:3]1[n:4][c:5]([H:9])[c:6]([H:10])[o:7]1)[H:8]>>[O+:1]#[C-:2].[c-:3]1[n:4]([H:8])[c:5]([H:9])[c:6]([H:10])[o+:7]1"
O        3.32574091       0.67403233       0.43445285
C        2.44005106       0.08385169      -0.01742888
C        0.48497662       0.34576996       0.49903708
N        0.08705142      -0.78422507      -0.06238332
C       -1.28060727      -0.69854341      -0.24790220
C       -1.61598638       0.58119385      -0.01242994
O       -0.48418071       1.26263115       0.31459432
H        1.48654996      -1.04423704      -0.41583124
H       -1.89733763      -1.54196474      -0.50693975
H       -2.54625797       1.12149128       0.01483108
10
Frame=15 idx=011281 GeodesicLength=0.5840221495901263 rxn_smarts="[O:1]=[C:2]([c:3]1[n:4][c:5]([H:9])[c:6]([H:10])[o:7]1)[H:8]>>[O+:1]#[C-:2].[c-:3]1[n:4]([H:8])[c:5]([H:9])[c:6]([H:10])[o+:7]1"
O        3.32358489       0.68419314       0.44417548
C        2.44341278       0.09525737      -0.02233212
C        0.48417911       0.33488993       0.50478567
N        0.08161403      -0.79365940      -0.05866631
C       -1.28587256      -0.70034451      -0.24385907
C       -1.61363940       0.58223635      -0.01328666
O       -0.47772870       1.25779371       0.31023544
H        1.49144955      -1.04827695      -0.42890474
H       -1.90667103      -1.54074005      -0.50298040
H       -2.54032867       1.12865040       0.01083271
10
Frame=16 idx=011281 GeodesicLength=0.6227935692917451 rxn_smarts="[O:1]=[C:2]([c:3]1[n:4][c:5]([H:9])[c:6]([H:10])[o:7]1)[H:8]>>[O+:1]#[C-:2].[c-:3]1[n:4]([H:8])[c:5]([H:9])[c:6]([H:10])[o+:7]1"
O        3.32140865       0.69423841       0.45389750
C        2.44675896       0.10672559      -0.02695604
C        0.48345608       0.32424058       0.51000241
N        0.07610465      -0.80308169      -0.05488979
C       -1.29116863      -0.70212602      -0.23971483
C       -1.61129834       0.58324606      -0.01411009
O       -0.47125852       1.25296439       0.30553702
H        1.49637635      -1.05242980      -0.44178325
H       -1.91595936      -1.53940858      -0.49928555
H       -2.53441983       1.13563104       0.00730262
