11
Frame=0 idx=005116 GeodesicLength=0.0 rxn_smarts="[C:1]1([H:6])([H:7])[C:2]([H:8])([H:9])[O:3][C:4]([H:10])([H:11])[O:5]1>>[C-:1]1([H:7])[C:2]([H:8])([H:9])[O:3][C:4]([H:11])=[O+:5]1.[H:6][H:10]"
C        0.47510370       0.85102990       0.39797325
C        1.04771625      -0.49738700       0.00838443
O       -0.18419451      -1.25265928      -0.21603816
C       -1.18427439      -0.48167596       0.19166386
O       -0.80170053       0.54229804       0.85885260
H       -0.35915163       1.06517773      -1.10276024
H        0.99612913       1.51524621       1.07359784
H        1.61329502      -0.47606101      -0.92514782
H        1.63040102      -1.03956788       0.76735037
H       -1.05998501       0.67025301      -1.36073119
H       -2.17333905      -0.89665379       0.30685504
11
Frame=1 idx=005116 GeodesicLength=0.07822064817026285 rxn_smarts="[C:1]1([H:6])([H:7])[C:2]([H:8])([H:9])[O:3][C:4]([H:10])([H:11])[O:5]1>>[C-:1]1([H:7])[C:2]([H:8])([H:9])[O:3][C:4]([H:11])=[O+:5]1.[H:6][H:10]"
C        0.47661273       0.85490133       0.38714703
C        1.04754214      -0.49859720       0.00932879
O       -0.18323289      -1.25091271      -0.22610559
C       -1.18571355      -0.47785522       0.17678758
O       -0.79904823       0.53903035       0.85930666
H       -0.35682406       1.08226401      -1.10265462
H        0.99941956       1.51163414       1.06934383
H        1.62395112      -0.48351901      -0.91740176
H        1.61774479      -1.03938204       0.77880591
H       -1.07500864       0.66985384      -1.35463405
H       -2.16544296      -0.90741749       0.32007622
11
Frame=2 idx=005116 GeodesicLength=0.156443417909498 rxn_smarts="[C:1]1([H:6])([H:7])[C:2]([H:8])([H:9])[O:3][C:4]([H:10])([H:11])[O:5]1>>[C-:1]1([H:7])[C:2]([H:8])([H:9])[O:3][C:4]([H:11])=[O+:5]1.[H:6][H:10]"
C        0.47817294       0.85865766       0.37642238
C        1.04732848      -0.49983384       0.01030740
O       -0.18225174      -1.24912550      -0.23611619
C       -1.18710145      -0.47421022       0.16249493
O       -0.79636041       0.53580933       0.85969494
H       -0.35440199       1.09949655      -1.10225364
H        1.00271513       1.50809465       1.06490598
H        1.63444927      -0.49103374      -0.90947637
H        1.60496307      -1.03917052       0.79004969
H       -1.09054127       0.66902217      -1.34847016
H       -2.15697202      -0.91770653       0.33244103
11
Frame=3 idx=005116 GeodesicLength=0.2346680209044609 rxn_smarts="[C:1]1([H:6])([H:7])[C:2]([H:8])([H:9])[O:3][C:4]([H:10])([H:11])[O:5]1>>[C-:1]1([H:7])[C:2]([H:8])([H:9])[O:3][C:4]([H:11])=[O+:5]1.[H:6][H:10]"
C        0.47979271       0.86230253       0.36579699
C        1.04708512      -0.50109310       0.01131757
O       -0.18123783      -1.24729861      -0.24607358
C       -1.18842935      -0.47073962       0.14876623
O       -0.79364114       0.53265883       0.86000921
H       -0.35183071       1.11690462      -1.10155968
H        1.00602630       1.50461921       1.06030567
H        1.64479763      -0.49859910      -0.90137599
H        1.59207499      -1.03892839       0.80107862
H       -1.10661826       0.66771979      -1.34224468
H       -2.14801947      -0.92754615       0.34397964
11
Frame=4 idx=005116 GeodesicLength=0.3128944765723309 rxn_smarts="[C:1]1([H:6])([H:7])[C:2]([H:8])([H:9])[O:3][C:4]([H:10])([H:11])[O:5]1>>[C-:1]1([H:7])[C:2]([H:8])([H:9])[O:3][C:4]([H:11])=[O+:5]1.[H:6][H:10]"
C        0.48147967       0.86583955       0.35526798
C        1.04681919      -0.50237220       0.01235718
O       -0.18018200      -1.24542962      -0.25598818
C       -1.18969335      -0.46743861       0.13557272
O       -0.79089803       0.52960295       0.86023528
H       -0.34904512       1.13452299      -1.10058014
H        1.00936098       1.50119776       1.05556479
H        1.65500615      -0.50620958      -0.89310148
H        1.57909112      -1.03865495       0.81189309
H       -1.12327992       0.66591716      -1.33596752
H       -2.13865870      -0.93697547       0.35474629
11
Frame=5 idx=005116 GeodesicLength=0.3911234431255172 rxn_smarts="[C:1]1([H:6])([H:7])[C:2]([H:8])([H:9])[O:3][C:4]([H:10])([H:11])[O:5]1>>[C-:1]1([H:7])[C:2]([H:8])([H:9])[O:3][C:4]([H:11])=[O+:5]1.[H:6][H:10]"
C        0.48324071       0.86927452       0.34483380
C        1.04653527      -0.50366798       0.01342267
O       -0.17907621      -1.24351839      -0.26587093
C       -1.19088641      -0.46430397       0.12289099
O       -0.78813717       0.52666615       0.86036306
H       -0.34597896       1.15239215      -1.09932112
H        1.01272519       1.49782325       1.05070695
H        1.66508139      -0.51385972      -0.88465669
H        1.56601681      -1.03835135       0.82249152
H       -1.14056875       0.66356931      -1.32964549
H       -2.12895188      -0.94602396       0.36478523
11
Frame=6 idx=005116 GeodesicLength=0.46934341008249036 rxn_smarts="[C:1]1([H:6])([H:7])[C:2]([H:8])([H:9])[O:3][C:4]([H:10])([H:11])[O:5]1>>[C-:1]1([H:7])[C:2]([H:8])([H:9])[O:3][C:4]([H:11])=[O+:5]1.[H:6][H:10]"
C        0.48507864       0.87260385       0.33448560
C        1.04623392      -0.50498007       0.01451245
O       -0.17791645      -1.24153821      -0.27576521
C       -1.19201710      -0.46131887       0.11066254
O       -0.78538026       0.52387357       0.86034994
H       -0.34255218       1.17056520      -1.09778665
H        1.01611237       1.49446842       1.04575102
H        1.67504695      -0.52155358      -0.87602061
H        1.55283124      -1.03802441       0.83288027
H       -1.15853146       0.66066215      -1.32330349
H       -2.11890567      -0.95475805       0.37423414
11
Frame=7 idx=005116 GeodesicLength=0.5474876188531514 rxn_smarts="[C:1]1([H:6])([H:7])[C:2]([H:8])([H:9])[O:3][C:4]([H:10])([H:11])[O:5]1>>[C-:1]1([H:7])[C:2]([H:8])([H:9])[O:3][C:4]([H:11])=[O+:5]1.[H:6][H:10]"
C        0.48700226       0.87583810       0.32423023
C        1.04591717      -0.50630567       0.01562295
O       -0.17670100      -1.23950327      -0.28566035
C       -1.19308437      -0.45848591       0.09887457
O       -0.78263414       0.52124837       0.86019872
H       -0.33869546       1.18908444      -1.09598421
H        1.01953424       1.49113656       1.04072673
H        1.68489072      -0.52927938      -0.86721344
H        1.53955334      -1.03767555       0.84305292
H       -1.17720284       0.65714433      -1.31696124
H       -2.10857993      -0.96320203       0.38311312
11
Frame=8 idx=005116 GeodesicLength=0.6257040102503455 rxn_smarts="[C:1]1([H:6])([H:7])[C:2]([H:8])([H:9])[O:3][C:4]([H:10])([H:11])[O:5]1>>[C-:1]1([H:7])[C:2]([H:8])([H:9])[O:3][C:4]([H:11])=[O+:5]1.[H:6][H:10]"
C        0.48901883       0.87897658       0.31407521
C        1.04558578      -0.50763946       0.01675098
O       -0.17542466      -1.23740236      -0.29556323
C       -1.19408749      -0.45579631       0.08750065
O       -0.77991662       0.51882283       0.85987501
H       -0.33427689       1.20800213      -1.09392335
H        1.02298724       1.48780249       1.03567364
H        1.69460648      -0.53702460      -0.85823934
H        1.52619354      -1.03730324       0.85299930
H       -1.19668655       0.65294005      -1.31062555
H       -2.09799967      -0.97137810       0.39147668
11
Frame=9 idx=005116 GeodesicLength=0.7039275833033559 rxn_smarts="[C:1]1([H:6])([H:7])[C:2]([H:8])([H:9])[O:3][C:4]([H:10])([H:11])[O:5]1>>[C-:1]1([H:7])[C:2]([H:8])([H:9])[O:3][C:4]([H:11])=[O+:5]1.[H:6][H:10]"
C        0.49113490       0.88202491       0.30402110
C        1.04523907      -0.50898119       0.01789232
O       -0.17408734      -1.23522766      -0.30549721
C       -1.19503285      -0.45324628       0.07650919
O       -0.77724793       0.51662514       0.85935766
H       -0.32920719       1.22738343      -1.09160552
H        1.02647161       1.48445575       1.03061791
H        1.70420198      -0.54478790      -0.84909964
H        1.51274223      -1.03691635       0.86271937
H       -1.21704043       0.64799685      -1.30432158
H       -2.08717405      -0.97932671       0.39940636
11
Frame=10 idx=005116 GeodesicLength=0.7822302695392509 rxn_smarts="[C:1]1([H:6])([H:7])[C:2]([H:8])([H:9])[O:3][C:4]([H:10])([H:11])[O:5]1>>[C-:1]1([H:7])[C:2]([H:8])([H:9])[O:3][C:4]([H:11])=[O+:5]1.[H:6][H:10]"
C        0.49335889       0.88498557       0.29407162
C        1.04487203      -0.51032882       0.01904351
O       -0.17268812      -1.23295928      -0.31549176
C       -1.19592239      -0.45082928       0.06587091
O       -0.77464650       0.51469059       0.85860932
H       -0.32336483       1.24732187      -1.08901882
H        1.02998628       1.48107235       1.02559214
H        1.71367694      -0.55256473      -0.83978922
H        1.49918245      -1.03652650       0.87221055
H       -1.23836478       0.64221840      -1.29808739
H       -2.07608997      -0.98708017       0.40698914
11
Frame=11 idx=005116 GeodesicLength=0.8603833992384863 rxn_smarts="[C:1]1([H:6])([H:7])[C:2]([H:8])([H:9])[O:3][C:4]([H:10])([H:11])[O:5]1>>[C-:1]1([H:7])[C:2]([H:8])([H:9])[O:3][C:4]([H:11])=[O+:5]1.[H:6][H:10]"
C        0.49569793       0.88786412       0.28421230
C        1.04448331      -0.51168367       0.02020711
O       -0.17122575      -1.23057588      -0.32560522
C       -1.19675900      -0.44854236       0.05555823
O       -0.77212556       0.51304160       0.85760409
H       -0.31666188       1.26784705      -1.08620288
H        1.03353555       1.47764769       1.02059977
H        1.72306360      -0.56035953      -0.83027936
H        1.48546893      -1.03614888       0.88149401
H       -1.26075846       0.63560593      -1.29188178
H       -2.06471867      -0.99469607       0.41429371
11
Frame=12 idx=005116 GeodesicLength=0.9386573482254112 rxn_smarts="[C:1]1([H:6])([H:7])[C:2]([H:8])([H:9])[O:3][C:4]([H:10])([H:11])[O:5]1>>[C-:1]1([H:7])[C:2]([H:8])([H:9])[O:3][C:4]([H:11])=[O+:5]1.[H:6][H:10]"
C        0.49816870       0.89066466       0.27446194
C        1.04406792      -0.51304238       0.02137549
O       -0.16970079      -1.22805597      -0.33586155
C       -1.19754978      -0.44638375       0.04554898
O       -0.76971479       0.51173539       0.85629219
H       -0.30889643       1.28909376      -1.08312578
H        1.03711843       1.47415379       1.01569923
H        1.73235100      -0.56816491      -0.82058050
H        1.47159634      -1.03579162       0.89055322
H       -1.28439533       0.62798621      -1.28576668
H       -2.05304527      -1.00219517       0.42140347
11
Frame=13 idx=005116 GeodesicLength=1.0168501608074867 rxn_smarts="[C:1]1([H:6])([H:7])[C:2]([H:8])([H:9])[O:3][C:4]([H:10])([H:11])[O:5]1>>[C-:1]1([H:7])[C:2]([H:8])([H:9])[O:3][C:4]([H:11])=[O+:5]1.[H:6][H:10]"
C        0.50078003       0.89339389       0.26480520
C        1.04362143      -0.51440634       0.02255153
O       -0.16810840      -1.22537096      -0.34632600
C       -1.19829080      -0.44435169       0.03582391
O       -0.76742862       0.51080238       0.85463615
H       -0.29995595       1.31112789      -1.07981632
H        1.04073842       1.47058279       1.01089134
H        1.74156896      -0.57598760      -0.81065559
H        1.45750890      -1.03547708       0.89940469
H       -1.30941019       0.61930887      -1.27968714
H       -2.04102380      -1.00962216       0.42837222
11
Frame=14 idx=005116 GeodesicLength=1.0950684660495271 rxn_smarts="[C:1]1([H:6])([H:7])[C:2]([H:8])([H:9])[O:3][C:4]([H:10])([H:11])[O:5]1>>[C-:1]1([H:7])[C:2]([H:8])([H:9])[O:3][C:4]([H:11])=[O+:5]1.[H:6][H:10]"
C        0.50354897       0.89605515       0.25525918
C        1.04313607      -0.51577178       0.02372763
O       -0.16644891      -1.22248993      -0.35703252
C       -1.19899121      -0.44244413       0.02635893
O       -0.76530048       0.51030384       0.85257703
H       -0.28962382       1.33407877      -1.07624369
H        1.04439065       1.46690102       1.00623530
H        1.75070466      -0.58382129      -0.80051082
H        1.44319208      -1.03521183       0.90803223
H       -1.33599387       0.60939368      -1.27368993
H       -2.02861415      -1.01699350       0.43528665
11
Frame=15 idx=005116 GeodesicLength=1.173272235253014 rxn_smarts="[C:1]1([H:6])([H:7])[C:2]([H:8])([H:9])[O:3][C:4]([H:10])([H:11])[O:5]1>>[C-:1]1([H:7])[C:2]([H:8])([H:9])[O:3][C:4]([H:11])=[O+:5]1.[H:6][H:10]"
C        0.50649732       0.89866019       0.24581263
C        1.04260508      -0.51713968       0.02490475
O       -0.16472064      -1.21936815      -0.36807498
C       -1.19965117      -0.44066292       0.01713504
O       -0.76335215       0.51029521       0.85005372
H       -0.27770261       1.35806720      -1.07242241
H        1.04808408       1.46310001       1.00174916
H        1.75979477      -0.59167508      -0.79010299
H        1.42856672      -1.03502628       0.91645212
H       -1.36437724       0.59811326      -1.26772550
H       -2.01574416      -1.02436376       0.44221845
11
Frame=16 idx=005116 GeodesicLength=1.2514779967274372 rxn_smarts="[C:1]1([H:6])([H:7])[C:2]([H:8])([H:9])[O:3][C:4]([H:10])([H:11])[O:5]1>>[C-:1]1([H:7])[C:2]([H:8])([H:9])[O:3][C:4]([H:11])=[O+:5]1.[H:6][H:10]"
C        0.50964737       0.90121765       0.23646666
C        1.04201772      -0.51850819       0.02607829
O       -0.16292041      -1.21595373      -0.37953273
C       -1.20027461      -0.43900672       0.00812755
O       -0.76161703       0.51084892       0.84698564
H       -0.26394417       1.38323892      -1.06833324
H        1.05181671       1.45915093       0.99747525
H        1.76885107      -0.59955465      -0.77940536
H        1.41357025      -1.03493980       0.92466068
H       -1.39481593       0.58527019      -1.26177334
H       -2.00233098      -1.03176352       0.44925062
