11
Frame=0 idx=004208 GeodesicLength=0.0 rxn_smarts="[O:1]([c:2]1[c:3]([H:8])[c:4]([H:9])[c:5]([H:10])[n:6]1[H:11])[H:7]>>[O:1]([C:2][N:6]([C:5]1([H:10])[C:3]([H:8])=[C:4]1[H:9])[H:11])[H:7]"
O        2.14117793       0.81114008       0.46130237
C        1.17633006       0.36404273      -0.37966406
C       -0.20588836      -1.32274148      -0.19063360
C       -1.24782067      -0.95150755       0.48039236
C       -1.12005312       0.35885133      -0.16020169
N        0.03960917       1.07972533      -0.15019976
H        2.96917673       0.43830054       0.15265167
H        0.21681306      -2.20254595      -0.64666830
H       -2.08050165      -1.38530457       1.02270431
H       -1.95852863       0.76286690      -0.72603001
H        0.06968543       2.04717266       0.13634670
11
Frame=1 idx=004208 GeodesicLength=0.0418787293232601 rxn_smarts="[O:1]([c:2]1[c:3]([H:8])[c:4]([H:9])[c:5]([H:10])[n:6]1[H:11])[H:7]>>[O:1]([C:2][N:6]([C:5]1([H:10])[C:3]([H:8])=[C:4]1[H:9])[H:11])[H:7]"
O        2.15127074       0.83077717       0.44838403
C        1.17068594       0.35111476      -0.35474004
C       -0.20516418      -1.31601760      -0.19748369
C       -1.24865831      -0.95006673       0.48113410
C       -1.12398408       0.35505194      -0.16375270
N        0.03878598       1.07611063      -0.14027436
H        2.97005763       0.42726392       0.15421686
H        0.21522808      -2.19847635      -0.65063857
H       -2.07733804      -1.38947761       1.02396805
H       -1.95948523       0.76513631      -0.72852378
H        0.06860146       2.04858355       0.12771008
11
Frame=2 idx=004208 GeodesicLength=0.08360400063852294 rxn_smarts="[O:1]([c:2]1[c:3]([H:8])[c:4]([H:9])[c:5]([H:10])[n:6]1[H:11])[H:7]>>[O:1]([C:2][N:6]([C:5]1([H:10])[C:3]([H:8])=[C:4]1[H:9])[H:11])[H:7]"
O        2.16155909       0.84925854       0.43354538
C        1.16487551       0.33837678      -0.32858531
C       -0.20436562      -1.30934318      -0.20347580
C       -1.25020521      -0.94869031       0.48147656
C       -1.12781733       0.35123195      -0.16744547
N        0.03791828       1.07244043      -0.12909753
H        2.97114650       0.41772619       0.15423033
H        0.21430109      -2.19442221      -0.65323328
H       -2.07539748      -1.39366691       1.02400507
H       -1.95978628       0.76754293      -0.73179450
H        0.06777142       2.04954580       0.12037456
11
Frame=3 idx=004208 GeodesicLength=0.12519798702719398 rxn_smarts="[O:1]([c:2]1[c:3]([H:8])[c:4]([H:9])[c:5]([H:10])[n:6]1[H:11])[H:7]>>[O:1]([C:2][N:6]([C:5]1([H:10])[C:3]([H:8])=[C:4]1[H:9])[H:11])[H:7]"
O        2.17186289       0.86660300       0.41751782
C        1.15910144       0.32533225      -0.30022255
C       -0.20360475      -1.30295155      -0.20854151
C       -1.25251687      -0.94745821       0.48151140
C       -1.13142130       0.34728053      -0.17122416
N        0.03718141       1.06845266      -0.11680399
H        2.97280863       0.41078377       0.15240914
H        0.21322457      -2.19037090      -0.65550777
H       -2.07468714      -1.39776246       1.02314423
H       -1.95931819       0.77008775      -0.73565390
H        0.06736931       2.05000316       0.11337128
11
Frame=4 idx=004208 GeodesicLength=0.1666297469303194 rxn_smarts="[O:1]([c:2]1[c:3]([H:8])[c:4]([H:9])[c:5]([H:10])[n:6]1[H:11])[H:7]>>[O:1]([C:2][N:6]([C:5]1([H:10])[C:3]([H:8])=[C:4]1[H:9])[H:11])[H:7]"
O        2.18210946       0.88310183       0.39929280
C        1.15312921       0.31272155      -0.27026297
C       -0.20249739      -1.29648420      -0.21271799
C       -1.25531900      -0.94629129       0.48121074
C       -1.13488412       0.34331967      -0.17511802
N        0.03626099       1.06457031      -0.10334528
H        2.97437163       0.40414893       0.14949838
H        0.21291006      -2.18604261      -0.65688204
H       -2.07484882      -1.40194162       1.02128273
H       -1.95825547       0.77265548      -0.74018137
H        0.06702345       2.05024196       0.10722302
11
Frame=5 idx=004208 GeodesicLength=0.20786591142904612 rxn_smarts="[O:1]([c:2]1[c:3]([H:8])[c:4]([H:9])[c:5]([H:10])[n:6]1[H:11])[H:7]>>[O:1]([C:2][N:6]([C:5]1([H:10])[C:3]([H:8])=[C:4]1[H:9])[H:11])[H:7]"
O        2.19207087       0.89804625       0.37942416
C        1.14693401       0.30050454      -0.23841877
C       -0.20102986      -1.28993482      -0.21581245
C       -1.25879441      -0.94512983       0.48043828
C       -1.13815368       0.33937392      -0.17928949
N        0.03515424       1.06078328      -0.08854878
H        2.97598793       0.39859969       0.14401796
H        0.21360076      -2.18154771      -0.65670733
H       -2.07622187      -1.40609085       1.01809112
H       -1.95634508       0.77526338      -0.74580885
H        0.06679709       2.05013216       0.10261415
11
Frame=6 idx=004208 GeodesicLength=0.24899181342464596 rxn_smarts="[O:1]([c:2]1[c:3]([H:8])[c:4]([H:9])[c:5]([H:10])[n:6]1[H:11])[H:7]>>[O:1]([C:2][N:6]([C:5]1([H:10])[C:3]([H:8])=[C:4]1[H:9])[H:11])[H:7]"
O        2.20184687       0.91207969       0.35741447
C        1.14059391       0.28842509      -0.20343953
C       -0.19917651      -1.28342365      -0.21759131
C       -1.26304521      -0.94410630       0.47922516
C       -1.14110864       0.33536001      -0.18356815
N        0.03392719       1.05693429      -0.07205474
H        2.97770343       0.39413111       0.13594381
H        0.21493451      -2.17672747      -0.65567265
H       -2.07902312      -1.41033224       1.01343020
H       -1.95337383       0.77791988      -0.75240134
H        0.06672140       2.04973958       0.09871407
11
Frame=7 idx=004208 GeodesicLength=0.28995862775864734 rxn_smarts="[O:1]([c:2]1[c:3]([H:8])[c:4]([H:9])[c:5]([H:10])[n:6]1[H:11])[H:7]>>[O:1]([C:2][N:6]([C:5]1([H:10])[C:3]([H:8])=[C:4]1[H:9])[H:11])[H:7]"
O        2.21114189       0.92454264       0.33330437
C        1.13393801       0.27691185      -0.16537242
C       -0.19669073      -1.27672027      -0.21787567
C       -1.26806846      -0.94310502       0.47741221
C       -1.14373631       0.33139366      -0.18811993
N        0.03237578       1.05329157      -0.05362883
H        2.97915525       0.39016982       0.12406276
H        0.21776108      -2.17153270      -0.65268128
H       -2.08336514      -1.41468921       1.00682701
H       -1.94915972       0.78057770      -0.76046057
H        0.06664835       2.04915996       0.09653237
11
Frame=8 idx=004208 GeodesicLength=0.33078278270114825 rxn_smarts="[O:1]([c:2]1[c:3]([H:8])[c:4]([H:9])[c:5]([H:10])[n:6]1[H:11])[H:7]>>[O:1]([C:2][N:6]([C:5]1([H:10])[C:3]([H:8])=[C:4]1[H:9])[H:11])[H:7]"
O        2.21978184       0.93537193       0.30699292
C        1.12697261       0.26591530      -0.12294757
C       -0.19338240      -1.26985541      -0.21615734
C       -1.27403130      -0.94212243       0.47487436
C       -1.14584849       0.32743328      -0.19308133
N        0.03049678       1.04982704      -0.03293762
H        2.98016358       0.38687753       0.10683649
H        0.22224801      -2.16589461      -0.64745297
H       -2.08967996      -1.41909354       0.99777186
H       -1.94325341       0.78319488      -0.77044431
H        0.06653274       2.04834602       0.09654551
11
Frame=9 idx=004208 GeodesicLength=0.3715727493146326 rxn_smarts="[O:1]([c:2]1[c:3]([H:8])[c:4]([H:9])[c:5]([H:10])[n:6]1[H:11])[H:7]>>[O:1]([C:2][N:6]([C:5]1([H:10])[C:3]([H:8])=[C:4]1[H:9])[H:11])[H:7]"
O        2.22714908       0.94388897       0.27821611
C        1.11942713       0.25636413      -0.07731752
C       -0.18884763      -1.26228742      -0.21281730
C       -1.28029320      -0.94099205       0.47164529
C       -1.14748589       0.32369682      -0.19841399
N        0.02792934       1.04710742      -0.01043794
H        2.97949916       0.38194936       0.08532619
H        0.22939822      -2.15937857      -0.63951168
H       -2.09693180      -1.42374342       0.98650280
H       -1.93590755       0.78563570      -0.78218382
H        0.06606314       2.04775906       0.09899186
11
Frame=10 idx=004208 GeodesicLength=0.4125195912525214 rxn_smarts="[O:1]([c:2]1[c:3]([H:8])[c:4]([H:9])[c:5]([H:10])[n:6]1[H:11])[H:7]>>[O:1]([C:2][N:6]([C:5]1([H:10])[C:3]([H:8])=[C:4]1[H:9])[H:11])[H:7]"
O        2.23295144       0.95008623       0.24617643
C        1.11129647       0.24825959      -0.02639516
C       -0.18270541      -1.25404195      -0.20698403
C       -1.28701583      -0.93975008       0.46752350
C       -1.14829893       0.32007934      -0.20434519
N        0.02467429       1.04510104       0.01432858
H        2.97660244       0.37529806       0.05783164
H        0.23941093      -2.15171974      -0.62871327
H       -2.10560536      -1.42855191       0.97232922
H       -1.92642168       0.78783507      -0.79627342
H        0.06511165       2.04740435       0.10452171
11
Frame=11 idx=004208 GeodesicLength=0.4539489981172032 rxn_smarts="[O:1]([c:2]1[c:3]([H:8])[c:4]([H:9])[c:5]([H:10])[n:6]1[H:11])[H:7]>>[O:1]([C:2][N:6]([C:5]1([H:10])[C:3]([H:8])=[C:4]1[H:9])[H:11])[H:7]"
O        2.23577692       0.95205903       0.21455617
C        1.10246104       0.24305185       0.02246476
C       -0.17483740      -1.24428449      -0.20153239
C       -1.29172291      -0.93810749       0.46363019
C       -1.14895182       0.31690478      -0.21031205
N        0.02043509       1.04475315       0.03736490
H        2.97024311       0.36345186       0.03327846
H        0.25176619      -2.14208340      -0.61859072
H       -2.11094468      -1.43364531       0.95959188
H       -1.91783364       0.78961746      -0.80939469
H        0.06360811       2.04828255       0.10894349
11
Frame=12 idx=004208 GeodesicLength=0.4962031660734923 rxn_smarts="[O:1]([c:2]1[c:3]([H:8])[c:4]([H:9])[c:5]([H:10])[n:6]1[H:11])[H:7]>>[O:1]([C:2][N:6]([C:5]1([H:10])[C:3]([H:8])=[C:4]1[H:9])[H:11])[H:7]"
O        2.23587781       0.94998771       0.18457535
C        1.09306678       0.24040491       0.06779785
C       -0.16560575      -1.23317329      -0.19686600
C       -1.29433650      -0.93611301       0.46024978
C       -1.14957323       0.31411088      -0.21614463
N        0.01541033       1.04585077       0.05825980
H        2.96108422       0.34733473       0.01272566
H        0.26567133      -2.13066892      -0.60987695
H       -2.11279951      -1.43900657       0.94881575
H       -1.91058003       0.79104579      -0.82099324
H        0.06178455       2.05022699       0.11145662
11
Frame=13 idx=004208 GeodesicLength=0.5394601587650597 rxn_smarts="[O:1]([c:2]1[c:3]([H:8])[c:4]([H:9])[c:5]([H:10])[n:6]1[H:11])[H:7]>>[O:1]([C:2][N:6]([C:5]1([H:10])[C:3]([H:8])=[C:4]1[H:9])[H:11])[H:7]"
O        2.23377039       0.94448055       0.15620389
C        1.08323174       0.23986614       0.10930733
C       -0.15539778      -1.22089340      -0.19319445
C       -1.29508085      -0.93385678       0.45746485
C       -1.15028769       0.31165110      -0.22166469
N        0.00976147       1.04814632       0.07711661
H        2.94985963       0.32779148      -0.00330178
H        0.28059366      -2.11770861      -0.60284425
H       -2.11147212      -1.44469568       0.94001242
H       -1.90480285       0.79220523      -0.83087106
H        0.05982439       2.05301364       0.11177112
11
Frame=14 idx=004208 GeodesicLength=0.5835095722148713 rxn_smarts="[O:1]([c:2]1[c:3]([H:8])[c:4]([H:9])[c:5]([H:10])[n:6]1[H:11])[H:7]>>[O:1]([C:2][N:6]([C:5]1([H:10])[C:3]([H:8])=[C:4]1[H:9])[H:11])[H:7]"
O        2.23000019       0.93606333       0.13177981
C        1.07323308       0.24075182       0.14509899
C       -0.14483166      -1.20781954      -0.19113843
C       -1.29400345      -0.93131247       0.45555102
C       -1.15129337       0.30941107      -0.22688779
N        0.00382922       1.05126071       0.09305413
H        2.93758648       0.30644157      -0.01419246
H        0.29539868      -2.10380466      -0.59818665
H       -2.10684692      -1.45039237       0.93406304
H       -1.90108565       0.79315501      -0.83852120
H        0.05801341       2.05624551       0.10937955
11
Frame=15 idx=004208 GeodesicLength=0.6283678936573555 rxn_smarts="[O:1]([c:2]1[c:3]([H:8])[c:4]([H:9])[c:5]([H:10])[n:6]1[H:11])[H:7]>>[O:1]([C:2][N:6]([C:5]1([H:10])[C:3]([H:8])=[C:4]1[H:9])[H:11])[H:7]"
O        2.22503011       0.92556587       0.10905282
C        1.06308934       0.24269675       0.17759377
C       -0.13393207      -1.19412176      -0.18989817
C       -1.29182546      -0.92859434       0.45412059
C       -1.15241781       0.30732488      -0.23190233
N       -0.00234642       1.05496757       0.10737457
H        2.92449157       0.28377869      -0.02189766
H        0.31040665      -2.08911339      -0.59478424
H       -2.10026503      -1.45616415       0.92957994
H       -1.89850482       0.79394942      -0.84492306
H        0.05627395       2.05971045       0.10568378
11
Frame=16 idx=004208 GeodesicLength=0.6737698357359995 rxn_smarts="[O:1]([c:2]1[c:3]([H:8])[c:4]([H:9])[c:5]([H:10])[n:6]1[H:11])[H:7]>>[O:1]([C:2][N:6]([C:5]1([H:10])[C:3]([H:8])=[C:4]1[H:9])[H:11])[H:7]"
O        2.21925637       0.91350052       0.08882731
C        1.05296420       0.24525479       0.20593915
C       -0.12308391      -1.18005199      -0.18983660
C       -1.28864312      -0.92569843       0.45325690
C       -1.15377982       0.30531608      -0.23675093
N       -0.00856490       1.05901835       0.11962798
H        2.91121888       0.26066887      -0.02588582
H        0.32495870      -2.07402411      -0.59301090
H       -2.09170235      -1.46178871       0.92707823
H       -1.89733671       0.79462119      -0.84987123
H        0.05471265       2.06318345       0.10062590
