14
Frame=0 idx=008999 GeodesicLength=0.0 rxn_smarts="[C:1]([N:2]([C:3](=[O:4])[N:5](/[C:6](=[N:7]/[H:14])[H:13])[H:12])[H:11])([H:8])([H:9])[H:10]>>[C:1]([O:4]/[C:3](=[N:2]/[H:11])[N:5](/[C:6](=[N:7]/[H:14])[H:13])[H:12])([H:8])([H:9])[H:10]"
C        2.54866069       0.06033551      -0.40010501
N        1.12032951       0.32905670       1.13232396
C        0.20100365       0.09156352       0.25209968
O        0.60330519      -0.11663764      -0.92731639
N       -1.14779877       0.05019573       0.53173036
C       -2.12534473      -0.20021163      -0.40602787
N       -3.34229971      -0.22460131      -0.06375742
H        2.56622225       0.37971952      -1.43227663
H        2.70001451      -0.99693554      -0.24713550
H        3.11813678       0.69769411       0.25670146
H        0.88053278       0.49744088       2.10033563
H       -1.46739209       0.21244337       1.47192507
H       -1.72121870      -0.36034821      -1.40592592
H       -3.93415135      -0.41971499      -0.86257140
14
Frame=1 idx=008999 GeodesicLength=0.02864562167494513 rxn_smarts="[C:1]([N:2]([C:3](=[O:4])[N:5](/[C:6](=[N:7]/[H:14])[H:13])[H:12])[H:11])([H:8])([H:9])[H:10]>>[C:1]([O:4]/[C:3](=[N:2]/[H:11])[N:5](/[C:6](=[N:7]/[H:14])[H:13])[H:12])([H:8])([H:9])[H:10]"
C        2.53890537       0.05832700      -0.39333356
N        1.12116278       0.35166858       1.12351799
C        0.19850709       0.13143898       0.24061044
O        0.60211636      -0.10294720      -0.93419755
N       -1.14459392       0.03239514       0.53360960
C       -2.12437419      -0.20716866      -0.40470713
N       -3.34116973      -0.22447563      -0.06126695
H        2.57752576       0.36003623      -1.43069916
H        2.68994412      -0.99760793      -0.22624830
H        3.12156356       0.70121859       0.24761877
H        0.88060488       0.47086356       2.09827654
H       -1.46269031       0.20195172       1.47306378
H       -1.72303450      -0.35443979      -1.40763661
H       -3.93446727      -0.42126059      -0.85860786
14
Frame=2 idx=008999 GeodesicLength=0.05737528942811533 rxn_smarts="[C:1]([N:2]([C:3](=[O:4])[N:5](/[C:6](=[N:7]/[H:14])[H:13])[H:12])[H:11])([H:8])([H:9])[H:10]>>[C:1]([O:4]/[C:3](=[N:2]/[H:11])[N:5](/[C:6](=[N:7]/[H:14])[H:13])[H:12])([H:8])([H:9])[H:10]"
C        2.52896292       0.05821735      -0.38667140
N        1.12165113       0.37079709       1.11548426
C        0.19622790       0.16120039       0.23106441
O        0.60118579      -0.09556126      -0.93947310
N       -1.14144173       0.02152568       0.53375258
C       -2.12332755      -0.21380170      -0.40353677
N       -3.33992952      -0.22234281      -0.05893676
H        2.58627529       0.34168188      -1.42877629
H        2.68419042      -0.99548959      -0.20513488
H        3.12257127       0.70867551       0.23772855
H        0.88103511       0.44441113       2.09439392
H       -1.45756318       0.19026355       1.47407793
H       -1.72479462      -0.35064590      -1.40899886
H       -3.93504324      -0.41893131      -0.85497359
14
Frame=3 idx=008999 GeodesicLength=0.0860887181312098 rxn_smarts="[C:1]([N:2]([C:3](=[O:4])[N:5](/[C:6](=[N:7]/[H:14])[H:13])[H:12])[H:11])([H:8])([H:9])[H:10]>>[C:1]([O:4]/[C:3](=[N:2]/[H:11])[N:5](/[C:6](=[N:7]/[H:14])[H:13])[H:12])([H:8])([H:9])[H:10]"
C        2.51909172       0.05954744      -0.38022731
N        1.12205492       0.38599018       1.10837369
C        0.19423820       0.18327505       0.22299304
O        0.60049146      -0.09280310      -0.94361472
N       -1.13847151       0.01280783       0.53340773
C       -2.12242261      -0.21976765      -0.40251697
N       -3.33882995      -0.21816777      -0.05693574
H        2.59325476       0.32514601      -1.42644414
H        2.68197633      -0.99127557      -0.18469972
H        3.12185971       0.71869255       0.22746490
H        0.88174193       0.41867063       2.08927306
H       -1.45259691       0.18062031       1.47462677
H       -1.72656940      -0.34798200      -1.41012214
H       -3.93581866      -0.41475391      -0.85157845
14
Frame=4 idx=008999 GeodesicLength=0.11478457584773852 rxn_smarts="[C:1]([N:2]([C:3](=[O:4])[N:5](/[C:6](=[N:7]/[H:14])[H:13])[H:12])[H:11])([H:8])([H:9])[H:10]>>[C:1]([O:4]/[C:3](=[N:2]/[H:11])[N:5](/[C:6](=[N:7]/[H:14])[H:13])[H:12])([H:8])([H:9])[H:10]"
C        2.50931111       0.06165958      -0.37398979
N        1.12245500       0.39825005       1.10202786
C        0.19242686       0.20104684       0.21583012
O        0.59988918      -0.09185865      -0.94719757
N       -1.13568117       0.00542227       0.53284396
C       -2.12163773      -0.22505759      -0.40160637
N       -3.33778895      -0.21308709      -0.05512920
H        2.59930959       0.31034510      -1.42360458
H        2.68150725      -0.98596335      -0.16542876
H        3.12030910       0.72939770       0.21735021
H        0.88260813       0.39394917       2.08328007
H       -1.44783920       0.17259162       1.47489515
H       -1.72818942      -0.34741614      -1.41083826
H       -3.93667975      -0.40927953      -0.84843285
14
Frame=5 idx=008999 GeodesicLength=0.14344055566862404 rxn_smarts="[C:1]([N:2]([C:3](=[O:4])[N:5](/[C:6](=[N:7]/[H:14])[H:13])[H:12])[H:11])([H:8])([H:9])[H:10]>>[C:1]([O:4]/[C:3](=[N:2]/[H:11])[N:5](/[C:6](=[N:7]/[H:14])[H:13])[H:12])([H:8])([H:9])[H:10]"
C        2.49962864       0.06390760      -0.36790898
N        1.12292913       0.40823200       1.09632810
C        0.19076358       0.21637205       0.20929071
O        0.59930881      -0.09123814      -0.95053033
N       -1.13305884      -0.00055865       0.53209719
C       -2.12093691      -0.22933556      -0.40085986
N       -3.33671309      -0.20857255      -0.05327905
H        2.60492999       0.29683518      -1.42021817
H        2.68164601      -0.98042677      -0.14744339
H        3.11849760       0.73946203       0.20769654
H        0.88350532       0.37049416       2.07667382
H       -1.44332035       0.16641900       1.47488091
H       -1.72974504      -0.34697733      -1.41148759
H       -3.93743484      -0.40461304      -0.84523990
14
Frame=6 idx=008999 GeodesicLength=0.172041664447867 rxn_smarts="[C:1]([N:2]([C:3](=[O:4])[N:5](/[C:6](=[N:7]/[H:14])[H:13])[H:12])[H:11])([H:8])([H:9])[H:10]>>[C:1]([O:4]/[C:3](=[N:2]/[H:11])[N:5](/[C:6](=[N:7]/[H:14])[H:13])[H:12])([H:8])([H:9])[H:10]"
C        2.49003652       0.06625631      -0.36201298
N        1.12346782       0.41655856       1.09113578
C        0.18920994       0.22990681       0.20325800
O        0.59873613      -0.09071146      -0.95370163
N       -1.13054442      -0.00578477       0.53129463
C       -2.12026298      -0.23322111      -0.40016188
N       -3.33559632      -0.20465458      -0.05137511
H        2.61021989       0.28441199      -1.41642833
H        2.68216076      -0.97472745      -0.13055973
H        3.11652297       0.74890972       0.19841432
H        0.88433918       0.34859486       2.06961416
H       -1.43896589       0.16119486       1.47476226
H       -1.73119203      -0.34711540      -1.41200298
H       -3.93813157      -0.39961833      -0.84223651
14
Frame=7 idx=008999 GeodesicLength=0.20073028335848492 rxn_smarts="[C:1]([N:2]([C:3](=[O:4])[N:5](/[C:6](=[N:7]/[H:14])[H:13])[H:12])[H:11])([H:8])([H:9])[H:10]>>[C:1]([O:4]/[C:3](=[N:2]/[H:11])[N:5](/[C:6](=[N:7]/[H:14])[H:13])[H:12])([H:8])([H:9])[H:10]"
C        2.48052684       0.06859070      -0.35622565
N        1.12410667       0.42346688       1.08619569
C        0.18779166       0.24192857       0.19749928
O        0.59817786      -0.09025696      -0.95673866
N       -1.12812028      -0.01015276       0.53039281
C       -2.11961028      -0.23649761      -0.39954494
N       -3.33442327      -0.20173977      -0.04931743
H        2.61523360       0.27264024      -1.41213807
H        2.68288212      -0.96889772      -0.11446426
H        3.11444685       0.75759645       0.18942525
H        0.88508108       0.32821838       2.06221273
H       -1.43471655       0.15675528       1.47447091
H       -1.73264455      -0.34657626      -1.41254366
H       -3.93873174      -0.39507543      -0.83922402
14
Frame=8 idx=008999 GeodesicLength=0.22931370213601565 rxn_smarts="[C:1]([N:2]([C:3](=[O:4])[N:5](/[C:6](=[N:7]/[H:14])[H:13])[H:12])[H:11])([H:8])([H:9])[H:10]>>[C:1]([O:4]/[C:3](=[N:2]/[H:11])[N:5](/[C:6](=[N:7]/[H:14])[H:13])[H:12])([H:8])([H:9])[H:10]"
C        2.47110809       0.07072221      -0.35060497
N        1.12484453       0.42933987       1.08172384
C        0.18646195       0.25333772       0.19215480
O        0.59758988      -0.08905458      -0.95979864
N       -1.12577393      -0.01377136       0.52943199
C       -2.11896048      -0.23902296      -0.39906612
N       -3.33323648      -0.19883188      -0.04736527
H        2.62014706       0.26171818      -1.40755000
H        2.68335075      -0.96341300      -0.09948405
H        3.11254396       0.76510048       0.18098914
H        0.88571486       0.30878909       2.05459035
H       -1.43064022       0.15339308       1.47408125
H       -1.73398903      -0.34592233      -1.41311644
H       -3.93916096      -0.39238453      -0.83598588
14
Frame=9 idx=008999 GeodesicLength=0.25785744137677147 rxn_smarts="[C:1]([N:2]([C:3](=[O:4])[N:5](/[C:6](=[N:7]/[H:14])[H:13])[H:12])[H:11])([H:8])([H:9])[H:10]>>[C:1]([O:4]/[C:3](=[N:2]/[H:11])[N:5](/[C:6](=[N:7]/[H:14])[H:13])[H:12])([H:8])([H:9])[H:10]"
C        2.46175702       0.07307652      -0.34518836
N        1.12557177       0.43466337       1.07740651
C        0.18514633       0.26363526       0.18709117
O        0.59700637      -0.08818673      -0.96272515
N       -1.12341178      -0.01784664       0.52859218
C       -2.11826353      -0.24231672      -0.39841180
N       -3.33198500      -0.19670906      -0.04527195
H        2.62475172       0.25140774      -1.40279728
H        2.68418062      -0.95751196      -0.08497194
H        3.11041278       0.77256682       0.17254782
H        0.88623306       0.29098181       2.04677444
H       -1.42655849       0.14953639       1.47380979
H       -1.73520337      -0.34670006      -1.41339760
H       -3.93963749      -0.38659675      -0.83345784
14
Frame=10 idx=008999 GeodesicLength=0.2863694051638398 rxn_smarts="[C:1]([N:2]([C:3](=[O:4])[N:5](/[C:6](=[N:7]/[H:14])[H:13])[H:12])[H:11])([H:8])([H:9])[H:10]>>[C:1]([O:4]/[C:3](=[N:2]/[H:11])[N:5](/[C:6](=[N:7]/[H:14])[H:13])[H:12])([H:8])([H:9])[H:10]"
C        2.45250590       0.07527664      -0.33990262
N        1.12639323       0.43916193       1.07337357
C        0.18393315       0.27333461       0.18228025
O        0.59643055      -0.08699451      -0.96563531
N       -1.12111814      -0.02128503       0.52768949
C       -2.11758493      -0.24481129      -0.39791014
N       -3.33074331      -0.19426904      -0.04331953
H        2.62923392       0.24160438      -1.39779162
H        2.68490221      -0.95180006      -0.07119031
H        3.10836499       0.77917776       0.16446054
H        0.88664089       0.27387912       2.03889109
H       -1.42260059       0.14640239       1.47344007
H       -1.73638355      -0.34676976      -1.41379276
H       -3.93997431      -0.38290713      -0.83059273
14
Frame=11 idx=008999 GeodesicLength=0.3148519683274454 rxn_smarts="[C:1]([N:2]([C:3](=[O:4])[N:5](/[C:6](=[N:7]/[H:14])[H:13])[H:12])[H:11])([H:8])([H:9])[H:10]>>[C:1]([O:4]/[C:3](=[N:2]/[H:11])[N:5](/[C:6](=[N:7]/[H:14])[H:13])[H:12])([H:8])([H:9])[H:10]"
C        2.44333934       0.07744228      -0.33476414
N        1.12725268       0.44318180       1.06951238
C        0.18276961       0.28242589       0.17768919
O        0.59586198      -0.08576212      -0.96848682
N       -1.11884311      -0.02462377       0.52680055
C       -2.11689425      -0.24718585      -0.39742526
N       -3.32947357      -0.19222861      -0.04132911
H        2.63354974       0.23218396      -1.39261020
H        2.68566449      -0.94604534      -0.05787910
H        3.10628627       0.78532350       0.15652707
H        0.88695161       0.25775209       2.03091604
H       -1.41869091       0.14338793       1.47306799
H       -1.73751831      -0.34682203      -1.41417120
H       -3.94025555      -0.37902975      -0.82784739
14
Frame=12 idx=008999 GeodesicLength=0.3433084522287238 rxn_smarts="[C:1]([N:2]([C:3](=[O:4])[N:5](/[C:6](=[N:7]/[H:14])[H:13])[H:12])[H:11])([H:8])([H:9])[H:10]>>[C:1]([O:4]/[C:3](=[N:2]/[H:11])[N:5](/[C:6](=[N:7]/[H:14])[H:13])[H:12])([H:8])([H:9])[H:10]"
C        2.43423551       0.07981025      -0.32981044
N        1.12807284       0.44699318       1.06571901
C        0.18159236       0.29068645       0.17327958
O        0.59530717      -0.08499647      -0.97121006
N       -1.11654390      -0.02845698       0.52603735
C       -2.11615503      -0.25034454      -0.39676811
N       -3.32813651      -0.19143132      -0.03909087
H        2.63760108       0.22308024      -1.38736925
H        2.68676200      -0.93985624      -0.04474849
H        3.10394904       0.79162613       0.14845242
H        0.88719771       0.24282550       2.02287699
H       -1.41476770       0.13989754       1.47281147
H       -1.73856571      -0.34797924      -1.41432321
H       -3.94054887      -0.37185451      -0.82585639
14
Frame=13 idx=008999 GeodesicLength=0.37175045933173795 rxn_smarts="[C:1]([N:2]([C:3](=[O:4])[N:5](/[C:6](=[N:7]/[H:14])[H:13])[H:12])[H:11])([H:8])([H:9])[H:10]>>[C:1]([O:4]/[C:3](=[N:2]/[H:11])[N:5](/[C:6](=[N:7]/[H:14])[H:13])[H:12])([H:8])([H:9])[H:10]"
C        2.42519286       0.08236495      -0.32502426
N        1.12884116       0.45062542       1.06199097
C        0.18038920       0.29822510       0.16902098
O        0.59476488      -0.08465041      -0.97381980
N       -1.11422884      -0.03272212       0.52537222
C       -2.11538340      -0.25415307      -0.39597826
N       -3.32675746      -0.19130876      -0.03673699
H        2.64142092       0.21425599      -1.38206549
H        2.68816422      -0.93323969      -0.03176021
H        3.10135072       0.79809375       0.14024529
H        0.88740431       0.22883864       2.01478114
H       -1.41082922       0.13590097       1.47266312
H       -1.73952742      -0.35018870      -1.41427867
H       -3.94080193      -0.36204208      -0.82441003
14
Frame=14 idx=008999 GeodesicLength=0.4001830187314001 rxn_smarts="[C:1]([N:2]([C:3](=[O:4])[N:5](/[C:6](=[N:7]/[H:14])[H:13])[H:12])[H:11])([H:8])([H:9])[H:10]>>[C:1]([O:4]/[C:3](=[N:2]/[H:11])[N:5](/[C:6](=[N:7]/[H:14])[H:13])[H:12])([H:8])([H:9])[H:10]"
C        2.41621094       0.08512578      -0.32040003
N        1.12954119       0.45408193       1.05832121
C        0.17914991       0.30504193       0.16489758
O        0.59424181      -0.08480949      -0.97629898
N       -1.11190479      -0.03745105       0.52479685
C       -2.11459438      -0.25857673      -0.39506640
N       -3.32535590      -0.19147054      -0.03435144
H        2.64501658       0.20570257      -1.37670475
H        2.68992216      -0.92613433      -0.01886966
H        3.09844524       0.80481958       0.13187175
H        0.88758691       0.21559422       2.00663761
H       -1.40688446       0.13138742       1.47260948
H       -1.74040547      -0.35348950      -1.41403736
H       -3.94096977      -0.34982180      -0.82340585
14
Frame=15 idx=008999 GeodesicLength=0.4286164665187223 rxn_smarts="[C:1]([N:2]([C:3](=[O:4])[N:5](/[C:6](=[N:7]/[H:14])[H:13])[H:12])[H:11])([H:8])([H:9])[H:10]>>[C:1]([O:4]/[C:3](=[N:2]/[H:11])[N:5](/[C:6](=[N:7]/[H:14])[H:13])[H:12])([H:8])([H:9])[H:10]"
C        2.40727211       0.08822197      -0.31595109
N        1.13011952       0.45740462       1.05468710
C        0.17783258       0.31101590       0.16089184
O        0.59373737      -0.08572576      -0.97861226
N       -1.10957112      -0.04288672       0.52434824
C       -2.11379152      -0.26393078      -0.39398075
N       -3.32393682      -0.19170577      -0.03200669
H        2.64834076       0.19747493      -1.37133013
H        2.69219762      -0.91831733      -0.00598219
H        3.09508551       0.81212633       0.12321897
H        0.88777449       0.20297748       1.99845204
H       -1.40292764       0.12612076       1.47268821
H       -1.74115765      -0.35859099      -1.41349925
H       -3.94097523      -0.33418465      -0.82292404
14
Frame=16 idx=008999 GeodesicLength=0.4570482034495361 rxn_smarts="[C:1]([N:2]([C:3](=[O:4])[N:5](/[C:6](=[N:7]/[H:14])[H:13])[H:12])[H:11])([H:8])([H:9])[H:10]>>[C:1]([O:4]/[C:3](=[N:2]/[H:11])[N:5](/[C:6](=[N:7]/[H:14])[H:13])[H:12])([H:8])([H:9])[H:10]"
C        2.39843089       0.09100979      -0.31156269
N        1.13076435       0.46041291       1.05118911
C        0.17659483       0.31696647       0.15697308
O        0.59325822      -0.08629537      -0.98094300
N       -1.10727925      -0.04769859       0.52377476
C       -2.11300118      -0.26841683      -0.39309986
N       -3.32251586      -0.19216319      -0.02967455
H        2.65167092       0.18922486      -1.36575243
H        2.69420478      -0.91078459       0.00660066
H        3.09185743       0.81863249       0.11480022
H        0.88787814       0.19068619       1.99025401
H       -1.39904057       0.12147544       1.47262926
H       -1.74199151      -0.36198621      -1.41326211
H       -3.94083120      -0.32106338      -0.82192644
