19
Frame=0 idx=011366 GeodesicLength=0.0 rxn_smarts="[C:1]([C:2]([C:3]([C:4]([C:5]([H:16])([H:17])[H:18])([H:14])[H:15])([C:6](=[O:7])[H:19])[H:13])([H:11])[H:12])([H:8])([H:9])[H:10]>>[C:1](/[C:2](=[C:3](/[C@:4]([C:5]([H:16])([H:17])[H:18])([C:6](=[O:7])[H:19])[H:14])[H:13])[H:12])([H:8])([H:9])[H:10].[H:11][H:15]"
C       -2.46212275      -0.69574057       0.41235968
C       -1.15658479      -0.61579169      -0.30777046
C       -0.03543833       0.10153956       0.23004752
C        1.29072371      -0.01284821      -0.32052511
C        2.48382213       0.51438250       0.40560118
C       -0.31870671       1.49184440      -0.44640725
O       -0.48938762       2.49651230       0.18770514
H       -2.99531464      -1.60247936       0.12038270
H       -2.32480422      -0.71657192       1.49411870
H       -3.12092613       0.14751658       0.17381569
H        0.09173310      -2.06791735      -0.34243931
H       -1.18878454      -0.73310970      -1.38844013
H       -0.06486190       0.24468062       1.30795349
H        1.36454867      -0.09098515      -1.40230254
H        0.88015087      -1.86585226      -0.35358824
H        3.39461074       0.06742072       0.00550330
H        2.43324016       0.29329551       1.47263206
H        2.58413950       1.60113303       0.29611149
H       -0.36603720       1.44297090      -1.54475793
19
Frame=1 idx=011366 GeodesicLength=0.10348130021701289 rxn_smarts="[C:1]([C:2]([C:3]([C:4]([C:5]([H:16])([H:17])[H:18])([H:14])[H:15])([C:6](=[O:7])[H:19])[H:13])([H:11])[H:12])([H:8])([H:9])[H:10]>>[C:1](/[C:2](=[C:3](/[C@:4]([C:5]([H:16])([H:17])[H:18])([C:6](=[O:7])[H:19])[H:14])[H:13])[H:12])([H:8])([H:9])[H:10].[H:11][H:15]"
C       -2.46326843      -0.70523251       0.41793362
C       -1.15563706      -0.62822924      -0.30065878
C       -0.04480080       0.10380426       0.23676826
C        1.28261195      -0.00473352      -0.32184035
C        2.47767644       0.51227548       0.40941150
C       -0.29443172       1.50519058      -0.46213297
O       -0.45529562       2.52217256       0.15479337
H       -2.99648679      -1.61256091       0.12770374
H       -2.32847599      -0.72420876       1.50009318
H       -3.11947139       0.13891118       0.17630932
H        0.08453450      -2.06291018      -0.34636358
H       -1.19529188      -0.73595814      -1.38248042
H       -0.07418993       0.25548541       1.31342552
H        1.35771305      -0.09403133      -1.40273289
H        0.89082184      -1.86275753      -0.35617283
H        3.39090998       0.09517705      -0.01664508
H        2.44103034       0.25004629       1.46771807
H        2.56606967       1.60317085       0.34439571
H       -0.36401817       1.44438846      -1.55952540
19
Frame=2 idx=011366 GeodesicLength=0.20682445793123855 rxn_smarts="[C:1]([C:2]([C:3]([C:4]([C:5]([H:16])([H:17])[H:18])([H:14])[H:15])([C:6](=[O:7])[H:19])[H:13])([H:11])[H:12])([H:8])([H:9])[H:10]>>[C:1](/[C:2](=[C:3](/[C@:4]([C:5]([H:16])([H:17])[H:18])([C:6](=[O:7])[H:19])[H:14])[H:13])[H:12])([H:8])([H:9])[H:10].[H:11][H:15]"
C       -2.46437651      -0.71509233       0.42360209
C       -1.15475098      -0.64062365      -0.29361693
C       -0.05448443       0.10657313       0.24292078
C        1.27435549       0.00322884      -0.32327978
C        2.47121194       0.51025695       0.41313324
C       -0.26954021       1.51876363      -0.47795045
O       -0.41951236       2.54756558       0.12202552
H       -2.99736415      -1.62319088       0.13521339
H       -2.33192896      -0.73210034       1.50613491
H       -3.11830452       0.12969315       0.17897907
H        0.07701482      -2.05813374      -0.34988829
H       -1.20202529      -0.73840857      -1.37649712
H       -0.08379906       0.26636640       1.31835363
H        1.35083355      -0.09725272      -1.40317786
H        0.90167461      -1.85951464      -0.35846371
H        3.38638082       0.12388883      -0.03724276
H        2.44833424       0.20779027       1.46109418
H        2.54796153       1.60334494       0.39252633
H       -0.36168052       1.44684515      -1.57386623
19
Frame=3 idx=011366 GeodesicLength=0.3101121204558185 rxn_smarts="[C:1]([C:2]([C:3]([C:4]([C:5]([H:16])([H:17])[H:18])([H:14])[H:15])([C:6](=[O:7])[H:19])[H:13])([H:11])[H:12])([H:8])([H:9])[H:10]>>[C:1](/[C:2](=[C:3](/[C@:4]([C:5]([H:16])([H:17])[H:18])([C:6](=[O:7])[H:19])[H:14])[H:13])[H:12])([H:8])([H:9])[H:10].[H:11][H:15]"
C       -2.46545505      -0.72532889       0.42937596
C       -1.15394056      -0.65297703      -0.28665030
C       -0.06451017       0.10982062       0.24849136
C        1.26595279       0.01100730      -0.32483647
C        2.46441709       0.50834364       0.41677088
C       -0.24400079       1.53254393      -0.49384990
O       -0.38190145       2.57266916       0.08943049
H       -2.99796680      -1.63436268       0.14290840
H       -2.33515762      -0.74028442       1.51225214
H       -3.11742981       0.11986744       0.18186476
H        0.06912613      -2.05362727      -0.35307404
H       -1.20900649      -0.74048960      -1.37048089
H       -0.09371408       0.27731739       1.32272840
H        1.34390406      -0.10064287      -1.40363321
H        0.91274247      -1.85614127      -0.36045425
H        3.38101731       0.15352607      -0.05629087
H        2.45510123       0.16667910       1.45288624
H        2.52976632       1.60170789       0.44034054
H       -0.35894457       1.45037149      -1.58777925
19
Frame=4 idx=011366 GeodesicLength=0.41340807094198384 rxn_smarts="[C:1]([C:2]([C:3]([C:4]([C:5]([H:16])([H:17])[H:18])([H:14])[H:15])([C:6](=[O:7])[H:19])[H:13])([H:11])[H:12])([H:8])([H:9])[H:10]>>[C:1](/[C:2](=[C:3](/[C@:4]([C:5]([H:16])([H:17])[H:18])([C:6](=[O:7])[H:19])[H:14])[H:13])[H:12])([H:8])([H:9])[H:10].[H:11][H:15]"
C       -2.46651072      -0.73595116       0.43526871
C       -1.15322055      -0.66528863      -0.27976353
C       -0.07490140       0.11352945       0.25346268
C        1.25739831       0.01858125      -0.32650752
C        2.45727597       0.50655743       0.42033028
C       -0.21778614       1.54650952      -0.50982392
O       -0.34233099       2.59744892       0.05702925
H       -2.99830643      -1.64607656       0.15079707
H       -2.33815459      -0.74878650       1.51845587
H       -3.11685653       0.10943161       0.18500068
H        0.06082436      -2.04942304      -0.35597789
H       -1.21625915      -0.74223525      -1.36442085
H       -0.10396170       0.28834303       1.32653694
H        1.33691697      -0.10418825      -1.40409913
H        0.92406264      -1.85264589      -0.36214111
H        3.37480612       0.18406283      -0.07378477
H        2.46129528       0.12682504       1.44320903
H        2.51144058       1.59830668       0.48769420
H       -0.35573204       1.45499951      -1.60126600
19
Frame=5 idx=011366 GeodesicLength=0.5167882859837095 rxn_smarts="[C:1]([C:2]([C:3]([C:4]([C:5]([H:16])([H:17])[H:18])([H:14])[H:15])([C:6](=[O:7])[H:19])[H:13])([H:11])[H:12])([H:8])([H:9])[H:10]>>[C:1](/[C:2](=[C:3](/[C@:4]([C:5]([H:16])([H:17])[H:18])([C:6](=[O:7])[H:19])[H:14])[H:13])[H:12])([H:8])([H:9])[H:10].[H:11][H:15]"
C       -2.46754917      -0.74696908       0.44129580
C       -1.15260526      -0.67755720      -0.27296310
C       -0.08567980       0.11767918       0.25781795
C        1.24868551       0.02593644      -0.32829597
C        2.44977618       0.50491775       0.42381029
C       -0.19087534       1.56063631      -0.52586147
O       -0.30067835       2.62186560       0.02484632
H       -2.99839649      -1.65833766       0.15889189
H       -2.34090716      -0.75763186       1.52476093
H       -3.11659476       0.09838237       0.18842176
H        0.05206106      -2.04555145      -0.35867188
H       -1.22381032      -0.74367496      -1.35830889
H       -0.11456503       0.29944172       1.32976394
H        1.32986222      -0.10786779      -1.40458363
H        0.93568077      -1.84902959      -0.36353078
H        3.36770791       0.21542729      -0.08965556
H        2.46691442       0.08836289       1.43217662
H        2.49295008       1.59320392       0.53441442
H       -0.35197646       1.46076610      -1.61432864
19
Frame=6 idx=011366 GeodesicLength=0.6203139088098064 rxn_smarts="[C:1]([C:2]([C:3]([C:4]([C:5]([H:16])([H:17])[H:18])([H:14])[H:15])([C:6](=[O:7])[H:19])[H:13])([H:11])[H:12])([H:8])([H:9])[H:10]>>[C:1](/[C:2](=[C:3](/[C@:4]([C:5]([H:16])([H:17])[H:18])([C:6](=[O:7])[H:19])[H:14])[H:13])[H:12])([H:8])([H:9])[H:10].[H:11][H:15]"
C       -2.46857473      -0.75839312       0.44747315
C       -1.15211018      -0.68977866      -0.26625307
C       -0.09687068       0.12225534       0.26154016
C        1.23980404       0.03307137      -0.33020282
C        2.44190680       0.50343478       0.42721744
C       -0.16324623       1.57490160      -0.54195099
O       -0.25684467       2.64586410      -0.00709253
H       -2.99823885      -1.67115012       0.16720682
H       -2.34340388      -0.76684231       1.53117995
H       -3.11665526       0.08671194       0.19216380
H        0.04279427      -2.04203900      -0.36122284
H       -1.23168645      -0.74484311      -1.35213425
H       -0.12555165       0.31062287       1.33239621
H        1.32272771      -0.11164999      -1.40509294
H        0.94764967      -1.84527988      -0.36463667
H        3.35973495       0.24749925      -0.10390012
H        2.47191898       0.05140763       1.41994785
H        2.47426383       1.58649742       0.58033691
H       -0.34761766       1.46770988      -1.62697605
19
Frame=7 idx=011366 GeodesicLength=0.7240161268577144 rxn_smarts="[C:1]([C:2]([C:3]([C:4]([C:5]([H:16])([H:17])[H:18])([H:14])[H:15])([C:6](=[O:7])[H:19])[H:13])([H:11])[H:12])([H:8])([H:9])[H:10]>>[C:1](/[C:2](=[C:3](/[C@:4]([C:5]([H:16])([H:17])[H:18])([C:6](=[O:7])[H:19])[H:14])[H:13])[H:12])([H:8])([H:9])[H:10].[H:11][H:15]"
C       -2.46958875      -0.77023629       0.45381923
C       -1.15174811      -0.70194632      -0.25963879
C       -0.10849857       0.12724735       0.26461188
C        1.23074157       0.03999629      -0.33223217
C        2.43365367       0.50212656       0.43055729
C       -0.13488884       1.58928339      -0.55807875
O       -0.21075023       2.66937724      -0.03876068
H       -2.99783326      -1.68452699       0.17576131
H       -2.34562714      -0.77643984       1.53772951
H       -3.11705136       0.07440693       0.19626252
H        0.03298707      -2.03890249      -0.36371224
H       -1.23991690      -0.74576841      -1.34588883
H       -0.13694950       0.32190008       1.33441738
H        1.31549958      -0.11549283      -1.40563744
H        0.96002451      -1.84137557      -0.36547645
H        3.35090134       0.28009481      -0.11648136
H        2.47627540       0.01607914       1.40668295
H        2.45536834       1.57830381       0.62527630
H       -0.34259883       1.47587316      -1.63921168
19
Frame=8 idx=011366 GeodesicLength=0.827928771747824 rxn_smarts="[C:1]([C:2]([C:3]([C:4]([C:5]([H:16])([H:17])[H:18])([H:14])[H:15])([C:6](=[O:7])[H:19])[H:13])([H:11])[H:12])([H:8])([H:9])[H:10]>>[C:1](/[C:2](=[C:3](/[C@:4]([C:5]([H:16])([H:17])[H:18])([C:6](=[O:7])[H:19])[H:14])[H:13])[H:12])([H:8])([H:9])[H:10].[H:11][H:15]"
C       -2.47059139      -0.78250242       0.46035157
C       -1.15153434      -0.71405077      -0.25312196
C       -0.12058872       0.13264890       0.26701928
C        1.22148496       0.04672381      -0.33438958
C        2.42500411       0.50100238       0.43383804
C       -0.10579426       1.60375268      -0.57422904
O       -0.16233183       2.69231483      -0.07014543
H       -2.99717695      -1.69847431       0.18457559
H       -2.34755912      -0.78642943       1.54442769
H       -3.11779087       0.06146216       0.20074644
H        0.02259562      -2.03615992      -0.36621845
H       -1.24853006      -0.74648794      -1.33956242
H       -0.14878573       0.33329114       1.33581247
H        1.30816291      -0.11935970      -1.40622896
H        0.97286825      -1.83729423      -0.36607457
H        3.34121760       0.31308403      -0.12738697
H        2.47997506      -0.01754458       1.39253515
H        2.43623648       1.56873443       0.66908799
H       -0.33686171       1.48528896      -1.65103684
19
Frame=9 idx=011366 GeodesicLength=0.9320135502534665 rxn_smarts="[C:1]([C:2]([C:3]([C:4]([C:5]([H:16])([H:17])[H:18])([H:14])[H:15])([C:6](=[O:7])[H:19])[H:13])([H:11])[H:12])([H:8])([H:9])[H:10]>>[C:1](/[C:2](=[C:3](/[C@:4]([C:5]([H:16])([H:17])[H:18])([C:6](=[O:7])[H:19])[H:14])[H:13])[H:12])([H:8])([H:9])[H:10].[H:11][H:15]"
C       -2.47153525      -0.79520805       0.46710682
C       -1.15145569      -0.72606684      -0.24672786
C       -0.13315162       0.13847193       0.26871280
C        1.21201629       0.05336726      -0.33666711
C        2.41596342       0.50004460       0.43709132
C       -0.07601222       1.61831907      -0.59038325
O       -0.11191805       2.71454653      -0.10119994
H       -2.99622195      -1.71299544       0.19368184
H       -2.34910898      -0.79685206       1.55130035
H       -3.11884538       0.04785398       0.20571396
H        0.01159939      -2.03377431      -0.36890623
H       -1.25755772      -0.74698471      -1.33316569
H       -0.16107042       0.34480831       1.33655398
H        1.30071387      -0.12309992      -1.40686958
H        0.98629748      -1.83289487      -0.36646617
H        3.33088078       0.34558701      -0.13647736
H        2.48282407      -0.04928052       1.37776020
H        2.41692455       1.55814625       0.71140437
H       -0.33034258       1.49601177      -1.66246243
19
Frame=10 idx=011366 GeodesicLength=1.0363381513663708 rxn_smarts="[C:1]([C:2]([C:3]([C:4]([C:5]([H:16])([H:17])[H:18])([H:14])[H:15])([C:6](=[O:7])[H:19])[H:13])([H:11])[H:12])([H:8])([H:9])[H:10]>>[C:1](/[C:2](=[C:3](/[C@:4]([C:5]([H:16])([H:17])[H:18])([C:6](=[O:7])[H:19])[H:14])[H:13])[H:12])([H:8])([H:9])[H:10].[H:11][H:15]"
C       -2.47245294      -0.80833331       0.47409548
C       -1.15154239      -0.73800079      -0.24043811
C       -0.14621383       0.14467459       0.26970411
C        1.20233618       0.05984405      -0.33907853
C        2.40651265       0.49927189       0.44031605
C       -0.04546957       1.63290802      -0.60654709
O       -0.05913791       2.73603564      -0.13195257
H       -2.99499983      -1.72808458       0.20311924
H       -2.35031053      -0.80765555       1.55836354
H       -3.12024642       0.03360442       0.21113543
H       -0.00006758      -2.03182013      -0.37177732
H       -1.26702649      -0.74735106      -1.32666790
H       -0.17384399       0.35647881       1.33662895
H        1.29314210      -0.12679393      -1.40757730
H        1.00032344      -1.82825522      -0.36669276
H        3.31973489       0.37823547      -0.14396481
H        2.48493759      -0.07926577       1.36243657
H        2.39731284       1.54647442       0.75241683
H       -0.32298821       1.50803303      -1.67351981
19
Frame=11 idx=011366 GeodesicLength=1.1408958567692062 rxn_smarts="[C:1]([C:2]([C:3]([C:4]([C:5]([H:16])([H:17])[H:18])([H:14])[H:15])([C:6](=[O:7])[H:19])[H:13])([H:11])[H:12])([H:8])([H:9])[H:10]>>[C:1](/[C:2](=[C:3](/[C@:4]([C:5]([H:16])([H:17])[H:18])([C:6](=[O:7])[H:19])[H:14])[H:13])[H:12])([H:8])([H:9])[H:10].[H:11][H:15]"
C       -2.47333413      -0.82187365       0.48134112
C       -1.15180078      -0.74984070      -0.23426099
C       -0.15978677       0.15123893       0.26997200
C        1.19243778       0.06617286      -0.34162513
C        2.39663584       0.49869461       0.44353003
C       -0.01416708       1.64748322      -0.62271092
O       -0.00397485       2.75668062      -0.16239280
H       -2.99350223      -1.74373853       0.21292853
H       -2.35113079      -0.81882805       1.56563869
H       -3.12199299       0.01871396       0.21704307
H       -0.01245136      -2.03031065      -0.37491882
H       -1.27696482      -0.74762384      -1.32006564
H       -0.18712989       0.36832559       1.33601131
H        1.28544405      -0.13040954      -1.40835928
H        1.01500950      -1.82333483      -0.36678284
H        3.30778394       0.41094109      -0.14988207
H        2.48628488      -0.10749783       1.34670900
H        2.37737773       1.53383592       0.79204910
H       -0.31473802       1.52137082      -1.68422434
19
Frame=12 idx=011366 GeodesicLength=1.245688637447221 rxn_smarts="[C:1]([C:2]([C:3]([C:4]([C:5]([H:16])([H:17])[H:18])([H:14])[H:15])([C:6](=[O:7])[H:19])[H:13])([H:11])[H:12])([H:8])([H:9])[H:10]>>[C:1](/[C:2](=[C:3](/[C@:4]([C:5]([H:16])([H:17])[H:18])([C:6](=[O:7])[H:19])[H:14])[H:13])[H:12])([H:8])([H:9])[H:10].[H:11][H:15]"
C       -2.47416588      -0.83582077       0.48887291
C       -1.15223887      -0.76157332      -0.22820104
C       -0.17388278       0.15814578       0.26949532
C        1.18231472       0.07237369      -0.34431393
C        2.38632585       0.49831662       0.44674589
C        0.01790310       1.66200450      -0.63886869
O        0.05357096       2.77637327      -0.19252151
H       -2.99171626      -1.75994852       0.22315571
H       -2.35153065      -0.83035604       1.57315134
H       -3.12408037       0.00318809       0.22347931
H       -0.02559956      -2.02926140      -0.37843101
H       -1.28740832      -0.74783814      -1.31335313
H       -0.20094978       0.38037173       1.33467467
H        1.27761607      -0.13391382      -1.40922921
H        1.03042605      -1.81808779      -0.36678751
H        3.29503795       0.44361050      -0.15424692
H        2.48683474      -0.13397960       1.33072239
H        2.35708124       1.52035923       0.83026103
H       -0.30553820       1.53603599      -1.69460561
19
Frame=13 idx=011366 GeodesicLength=1.3506906908831908 rxn_smarts="[C:1]([C:2]([C:3]([C:4]([C:5]([H:16])([H:17])[H:18])([H:14])[H:15])([C:6](=[O:7])[H:19])[H:13])([H:11])[H:12])([H:8])([H:9])[H:10]>>[C:1](/[C:2](=[C:3](/[C@:4]([C:5]([H:16])([H:17])[H:18])([C:6](=[O:7])[H:19])[H:14])[H:13])[H:12])([H:8])([H:9])[H:10].[H:11][H:15]"
C       -2.47493228      -0.85016496       0.49671806
C       -1.15286188      -0.77318592      -0.22226397
C       -0.18851378       0.16537728       0.26825822
C        1.17195981       0.07847471      -0.34714752
C        2.37557134       0.49813345       0.44998794
C        0.05073779       1.67643073      -0.65501008
O        0.11348776       2.79499370      -0.22233663
H       -2.98963024      -1.77670715       0.23384453
H       -2.35146763      -0.84222354       1.58092664
H       -3.12649934      -0.01296607       0.23048266
H       -0.03955592      -2.02867981      -0.38241991
H       -1.29839016      -0.74802519      -1.30652644
H       -0.21532824       0.39264219       1.33259505
H        1.26965737      -0.13726904      -1.41019604
H        1.04663897      -1.81246112      -0.36676416
H        3.28150341       0.47613256      -0.15707294
H        2.48657242      -0.15871980       1.31461274
H        2.33638862       1.50618896       0.86700227
H       -0.29533801       1.55202904      -1.70469042
19
Frame=14 idx=011366 GeodesicLength=1.4558813748274357 rxn_smarts="[C:1]([C:2]([C:3]([C:4]([C:5]([H:16])([H:17])[H:18])([H:14])[H:15])([C:6](=[O:7])[H:19])[H:13])([H:11])[H:12])([H:8])([H:9])[H:10]>>[C:1](/[C:2](=[C:3](/[C@:4]([C:5]([H:16])([H:17])[H:18])([C:6](=[O:7])[H:19])[H:14])[H:13])[H:12])([H:8])([H:9])[H:10].[H:11][H:15]"
C       -2.47561446      -0.86489323       0.50490663
C       -1.15367555      -0.78466647      -0.21645495
C       -0.20369011       0.17291265       0.26624163
C        1.16136526       0.08450339      -0.35013297
C        2.36436006       0.49815393       0.45327243
C        0.08433305       1.69071791      -0.67112484
O        0.17575003       2.81240692      -0.25185055
H       -2.98722825      -1.79399858       0.24504202
H       -2.35089546      -0.85441135       1.58899026
H       -3.12923558      -0.02973763       0.23809896
H       -0.05437371      -2.02857418      -0.38700015
H       -1.30994879      -0.74821937      -1.29958099
H       -0.23028925       0.40516175       1.32974641
H        1.26156376      -0.14044011      -1.41127257
H        1.06371604      -1.80640293      -0.36677470
H        3.26723700       0.50841799      -0.15840745
H        2.48545531      -0.18174347       1.29852443
H        2.31524837       1.49146715       0.90227309
H       -0.28407772       1.56934564      -1.71449670
19
Frame=15 idx=011366 GeodesicLength=1.5612209689752923 rxn_smarts="[C:1]([C:2]([C:3]([C:4]([C:5]([H:16])([H:17])[H:18])([H:14])[H:15])([C:6](=[O:7])[H:19])[H:13])([H:11])[H:12])([H:8])([H:9])[H:10]>>[C:1](/[C:2](=[C:3](/[C@:4]([C:5]([H:16])([H:17])[H:18])([C:6](=[O:7])[H:19])[H:14])[H:13])[H:12])([H:8])([H:9])[H:10].[H:11][H:15]"
C       -2.47619009      -0.87998826       0.51346609
C       -1.15468293      -0.79600249      -0.21078220
C       -0.21941811       0.18072758       0.26343021
C        1.15052655       0.09048813      -0.35327318
C        2.35268182       0.49837898       0.45662140
C        0.11867993       1.70481606      -0.68720076
O        0.24029539       2.82847368      -0.28106058
H       -2.98449624      -1.81180101       0.25679005
H       -2.34976336      -0.86689849       1.59736525
H       -3.13226738      -0.04710842       0.24637420
H       -0.07010522      -2.02895083      -0.39229382
H       -1.32211913      -0.74844872      -1.29251497
H       -0.24585528       0.41795163       1.32610381
H        1.25333718      -0.14339572      -1.41246720
H        1.08172477      -1.79985481      -0.36688204
H        3.25228674       0.54035543      -0.15829435
H        2.48345460      -0.20307369       1.28259876
H        2.29361283       1.47635502       0.93606303
H       -0.27170209       1.58797592      -1.72404371
19
Frame=16 idx=011366 GeodesicLength=1.6666892035608019 rxn_smarts="[C:1]([C:2]([C:3]([C:4]([C:5]([H:16])([H:17])[H:18])([H:14])[H:15])([C:6](=[O:7])[H:19])[H:13])([H:11])[H:12])([H:8])([H:9])[H:10]>>[C:1](/[C:2](=[C:3](/[C@:4]([C:5]([H:16])([H:17])[H:18])([C:6](=[O:7])[H:19])[H:14])[H:13])[H:12])([H:8])([H:9])[H:10].[H:11][H:15]"
C       -2.47663265      -0.89543496       0.52242695
C       -1.15588666      -0.80718156      -0.20525443
C       -0.23570501       0.18879867       0.25980973
C        1.13943723       0.09646220      -0.35656981
C        2.34052146       0.49881539       0.46006197
C        0.15377199       1.71867642      -0.70322531
O        0.30708895       2.84304616      -0.30998624
H       -2.98141622      -1.83009441       0.26913221
H       -2.34801278      -0.87967040       1.60607625
H       -3.13557024      -0.06506204       0.25536279
H       -0.08680889      -2.02980883      -0.39843834
H       -1.33494156      -0.74873622      -1.28532621
H       -0.26205466       0.43103932       1.32164239
H        1.24497874      -0.14609808      -1.41378677
H        1.10073416      -1.79275399      -0.36715318
H        3.23671504       0.57184996      -0.15677881
H        2.48053768      -0.22274594       1.26696941
H        2.27141416       1.46100224       0.96838961
H       -0.25817074       1.60789607      -1.73335223
