15
Frame=0 idx=009217 GeodesicLength=0.0 rxn_smarts="[C:1]([C:2]#[C:3][C:4]([C@@:5]1([H:13])[C:6]([H:14])([H:15])[O:7]1)([H:11])[H:12])([H:8])([H:9])[H:10]>>[C:1]([C:2]#[C:3][C:4]([C:5](=[O+:7][C-:6]([H:14])[H:15])[H:13])([H:11])[H:12])([H:8])([H:9])[H:10]"
C        2.91101863      -0.92966637      -1.67460923
C        1.87578304      -0.28220981      -0.87746880
C        1.02731611       0.25517249      -0.22432208
C       -0.01866340       0.89256184       0.57186580
C       -1.35564057       0.27716079       0.36975221
C       -3.20191119       0.16202625       1.40633206
O       -2.40801908       1.00443700       0.72217548
H        3.86926599      -0.91171828      -1.15352499
H        2.65231017      -1.97105702      -1.87200260
H        3.03433972      -0.42383957      -2.63334675
H       -0.10377103       1.95803207       0.32233234
H        0.26773490       0.86688197       1.63369352
H       -1.52887412      -0.71809014      -0.00859333
H       -4.26319774       0.24638265       1.22825698
H       -2.75769142      -0.42607392       2.18945945
15
Frame=1 idx=009217 GeodesicLength=0.042491163690315935 rxn_smarts="[C:1]([C:2]#[C:3][C:4]([C@@:5]1([H:13])[C:6]([H:14])([H:15])[O:7]1)([H:11])[H:12])([H:8])([H:9])[H:10]>>[C:1]([C:2]#[C:3][C:4]([C:5](=[O+:7][C-:6]([H:14])[H:15])[H:13])([H:11])[H:12])([H:8])([H:9])[H:10]"
C        2.90855562      -0.94179098      -1.65598941
C        1.86683960      -0.28967512      -0.87114700
C        1.01739866       0.25579200      -0.22596916
C       -0.02817183       0.90802153       0.55889969
C       -1.37357929       0.31193175       0.34871117
C       -3.17065071       0.13631073       1.42113198
O       -2.41194440       1.02931416       0.76152542
H        3.86727713      -0.90264829      -1.13692745
H        2.66095286      -1.98980291      -1.83141810
H        3.02534907      -0.45458372      -2.62514341
H       -0.09315957       1.97412132       0.30659168
H        0.24780210       0.87914180       1.62302492
H       -1.56450354      -0.64182692      -0.11859347
H       -4.23809799       0.22589093       1.28675912
H       -2.71406773      -0.50019629       2.15854404
15
Frame=2 idx=009217 GeodesicLength=0.08475941197148658 rxn_smarts="[C:1]([C:2]#[C:3][C:4]([C@@:5]1([H:13])[C:6]([H:14])([H:15])[O:7]1)([H:11])[H:12])([H:8])([H:9])[H:10]>>[C:1]([C:2]#[C:3][C:4]([C:5](=[O+:7][C-:6]([H:14])[H:15])[H:13])([H:11])[H:12])([H:8])([H:9])[H:10]"
C        2.90504764      -0.95388012      -1.63801427
C        1.85704377      -0.29873221      -0.86410124
C        1.00666779       0.25423194      -0.22653056
C       -0.03690381       0.92404907       0.54637453
C       -1.39025421       0.34538039       0.33218529
C       -3.13930301       0.10964386       1.43256916
O       -2.41412320       1.05034825       0.80194666
H        3.86362796      -0.89682728      -1.12033640
H        2.66726458      -2.00704317      -1.79530988
H        3.01706502      -0.48226306      -2.61542171
H       -0.08308750       1.98941289       0.28747282
H        0.23052352       0.89630560       1.61233082
H       -1.59928497      -0.56048305      -0.21650673
H       -4.21120624       0.20158174       1.34031698
H       -2.67307734      -0.57172486       2.12302452
15
Frame=3 idx=009217 GeodesicLength=0.1268217898069438 rxn_smarts="[C:1]([C:2]#[C:3][C:4]([C@@:5]1([H:13])[C:6]([H:14])([H:15])[O:7]1)([H:11])[H:12])([H:8])([H:9])[H:10]>>[C:1]([C:2]#[C:3][C:4]([C:5](=[O+:7][C-:6]([H:14])[H:15])[H:13])([H:11])[H:12])([H:8])([H:9])[H:10]"
C        2.90113931      -0.96572657      -1.62068255
C        1.84613451      -0.30950507      -0.85721666
C        0.99474850       0.25030545      -0.22695384
C       -0.04482102       0.94018026       0.53394653
C       -1.40575126       0.37680457       0.32064337
C       -3.10854968       0.08264737       1.44128640
O       -2.41412032       1.06778433       0.84458225
H        3.85885184      -0.89242745      -1.10343071
H        2.67305241      -2.02320365      -1.76273261
H        3.00977254      -0.50738078      -2.60477263
H       -0.07375498       2.00339387       0.26455665
H        0.21667876       0.91795043       1.60109977
H       -1.63381664      -0.47494082      -0.30283993
H       -4.18326421       0.17563387       1.38947504
H       -2.63629975      -0.64151579       2.08303893
15
Frame=4 idx=009217 GeodesicLength=0.16952832279525656 rxn_smarts="[C:1]([C:2]#[C:3][C:4]([C@@:5]1([H:13])[C:6]([H:14])([H:15])[O:7]1)([H:11])[H:12])([H:8])([H:9])[H:10]>>[C:1]([C:2]#[C:3][C:4]([C:5](=[O+:7][C-:6]([H:14])[H:15])[H:13])([H:11])[H:12])([H:8])([H:9])[H:10]"
C        2.89333832      -0.97962140      -1.60232982
C        1.83548940      -0.31538663      -0.84976783
C        0.98368442       0.25301080      -0.22774186
C       -0.05210616       0.96094757       0.52203133
C       -1.41927075       0.40960360       0.31040693
C       -3.07483474       0.05126952       1.44630857
O       -2.41287422       1.08068687       0.88832393
H        3.85016838      -0.89713415      -1.08481203
H        2.66770246      -2.03946334      -1.73002040
H        3.00268033      -0.53472681      -2.59250664
H       -0.06663264       2.02149039       0.24184756
H        0.20460576       0.94514681       1.59005176
H       -1.66461243      -0.38287324      -0.38165577
H       -4.15135347       0.13903705       1.43329404
H       -2.59598467      -0.71198702       2.03657023
15
Frame=5 idx=009217 GeodesicLength=0.2124711833118838 rxn_smarts="[C:1]([C:2]#[C:3][C:4]([C@@:5]1([H:13])[C:6]([H:14])([H:15])[O:7]1)([H:11])[H:12])([H:8])([H:9])[H:10]>>[C:1]([C:2]#[C:3][C:4]([C:5](=[O+:7][C-:6]([H:14])[H:15])[H:13])([H:11])[H:12])([H:8])([H:9])[H:10]"
C        2.88660684      -0.99222973      -1.58482714
C        1.82329619      -0.32436684      -0.84320440
C        0.97033722       0.25108181      -0.22922090
C       -0.05916699       0.97900576       0.51043136
C       -1.43316597       0.44070798       0.30233661
C       -3.04217879       0.02228903       1.44916655
O       -2.41009140       1.09138069       0.93216988
H        3.84250290      -0.89562788      -1.06801016
H        2.66817451      -2.05536241      -1.69681389
H        2.99395993      -0.56142180      -2.58144080
H       -0.05865541       2.03636014       0.21872798
H        0.19426482       0.97016191       1.57889614
H       -1.69727106      -0.28922544      -0.44972518
H       -4.11909066       0.10476249       1.47508931
H       -2.55952213      -0.77751569       1.98642466
15
Frame=6 idx=009217 GeodesicLength=0.25590677221790936 rxn_smarts="[C:1]([C:2]#[C:3][C:4]([C@@:5]1([H:13])[C:6]([H:14])([H:15])[O:7]1)([H:11])[H:12])([H:8])([H:9])[H:10]>>[C:1]([C:2]#[C:3][C:4]([C:5](=[O+:7][C-:6]([H:14])[H:15])[H:13])([H:11])[H:12])([H:8])([H:9])[H:10]"
C        2.87735315      -1.00547889      -1.56748815
C        1.81164335      -0.33091768      -0.83539109
C        0.95798210       0.25198822      -0.22938567
C       -0.06528381       0.99872002       0.50059846
C       -1.44534430       0.47175540       0.29600230
C       -3.00856154      -0.00797814       1.44787105
O       -2.40588344       1.09845975       0.97564381
H        3.83404272      -0.89366219      -1.05521029
H        2.66514103      -2.07179798      -1.65944818
H        2.97963072      -0.59228191      -2.57207208
H       -0.05110546       2.05256820       0.19744257
H        0.18525926       0.99702453       1.56935085
H       -1.72674670      -0.19308937      -0.50897280
H       -4.08485778       0.06544502       1.51014453
H       -2.52326930      -0.84075498       1.93091470
15
Frame=7 idx=009217 GeodesicLength=0.3002898823427574 rxn_smarts="[C:1]([C:2]#[C:3][C:4]([C@@:5]1([H:13])[C:6]([H:14])([H:15])[O:7]1)([H:11])[H:12])([H:8])([H:9])[H:10]>>[C:1]([C:2]#[C:3][C:4]([C:5](=[O+:7][C-:6]([H:14])[H:15])[H:13])([H:11])[H:12])([H:8])([H:9])[H:10]"
C        2.86642098      -1.01950789      -1.54945488
C        1.79905518      -0.33532346      -0.82875364
C        0.94473597       0.25576301      -0.23157802
C       -0.07124399       1.01993394       0.49101860
C       -1.45718050       0.50389970       0.29032856
C       -2.97313231      -0.03954200       1.44379150
O       -2.40047196       1.10220067       1.01997116
H        3.82399307      -0.89209216      -1.04247955
H        2.65946195      -2.08860137      -1.61839989
H        2.96391391      -0.62694024      -2.56276084
H       -0.04425686       2.07038290       0.17779533
H        0.17758649       1.02404633       1.55972170
H       -1.75586812      -0.09319370      -0.56084631
H       -4.04771118       0.02136249       1.54245468
H       -2.48530262      -0.90238822       1.86919161
15
Frame=8 idx=009217 GeodesicLength=0.3452522810647568 rxn_smarts="[C:1]([C:2]#[C:3][C:4]([C@@:5]1([H:13])[C:6]([H:14])([H:15])[O:7]1)([H:11])[H:12])([H:8])([H:9])[H:10]>>[C:1]([C:2]#[C:3][C:4]([C:5](=[O+:7][C-:6]([H:14])[H:15])[H:13])([H:11])[H:12])([H:8])([H:9])[H:10]"
C        2.85535604      -1.03307227      -1.53161362
C        1.78547837      -0.34050707      -0.82269660
C        0.93027326       0.25840355      -0.23455640
C       -0.07720759       1.04053815       0.48125048
C       -1.46901390       0.53498095       0.28617556
C       -2.93746753      -0.06990123       1.43812169
O       -2.39397495       1.10327738       1.06364649
H        3.81315726      -0.89100147      -1.02896706
H        2.65368159      -2.10434212      -1.57930917
H        2.94934517      -0.65983357      -2.55253729
H       -0.03792408       2.08707481       0.15708900
H        0.17106608       1.05128971       1.54959165
H       -1.78517059       0.00582828      -0.60340056
H       -4.00920536      -0.02367294       1.57195474
H       -2.44839376      -0.95906218       1.80525108
15
Frame=9 idx=009217 GeodesicLength=0.39064587093302694 rxn_smarts="[C:1]([C:2]#[C:3][C:4]([C@@:5]1([H:13])[C:6]([H:14])([H:15])[O:7]1)([H:11])[H:12])([H:8])([H:9])[H:10]>>[C:1]([C:2]#[C:3][C:4]([C:5](=[O+:7][C-:6]([H:14])[H:15])[H:13])([H:11])[H:12])([H:8])([H:9])[H:10]"
C        2.84405885      -1.04613683      -1.51416422
C        1.77148099      -0.34612104      -0.81669624
C        0.91533745       0.26021161      -0.23748637
C       -0.08290864       1.06062293       0.47163631
C       -1.48033042       0.56438214       0.28407926
C       -2.90199914      -0.09904527       1.43080672
O       -2.38603396       1.10163412       1.10680886
H        3.80196426      -0.88971885      -1.01597847
H        2.64786439      -2.11914954      -1.54136031
H        2.93461109      -0.69162812      -2.54206075
H       -0.03227721       2.10257697       0.13517618
H        0.16589326       1.07944516       1.53928507
H       -1.81391415       0.10320013      -0.63702117
H       -3.96992329      -0.06897554       1.59760091
H       -2.41382347      -1.01129788       1.73937421
15
Frame=10 idx=009217 GeodesicLength=0.4375456429729796 rxn_smarts="[C:1]([C:2]#[C:3][C:4]([C@@:5]1([H:13])[C:6]([H:14])([H:15])[O:7]1)([H:11])[H:12])([H:8])([H:9])[H:10]>>[C:1]([C:2]#[C:3][C:4]([C:5](=[O+:7][C-:6]([H:14])[H:15])[H:13])([H:11])[H:12])([H:8])([H:9])[H:10]"
C        2.83102397      -1.06031064      -1.49516061
C        1.75574890      -0.34941130      -0.81298059
C        0.89880394       0.26574535      -0.24424318
C       -0.08905068       1.08295150       0.46090621
C       -1.49198904       0.59550370       0.28235322
C       -2.86344229      -0.12993354       1.42170844
O       -2.37664614       1.09632979       1.15136774
H        3.78787511      -0.89268869      -0.99857894
H        2.63689695      -2.13402804      -1.50235205
H        2.92268802      -0.72505624      -2.52940989
H       -0.02830854       2.12047436       0.11327868
H        0.16199561       1.10868100       1.52742224
H       -1.84399447       0.20360831      -0.66420781
H       -3.92616395      -0.12009572       1.62232107
H       -2.37543738      -1.06176984       1.66757547
15
Frame=11 idx=009217 GeodesicLength=0.48466819494531244 rxn_smarts="[C:1]([C:2]#[C:3][C:4]([C@@:5]1([H:13])[C:6]([H:14])([H:15])[O:7]1)([H:11])[H:12])([H:8])([H:9])[H:10]>>[C:1]([C:2]#[C:3][C:4]([C:5](=[O+:7][C-:6]([H:14])[H:15])[H:13])([H:11])[H:12])([H:8])([H:9])[H:10]"
C        2.81722526      -1.07368326      -1.47724050
C        1.74098366      -0.35332212      -0.80656640
C        0.88361989       0.26999759      -0.24730238
C       -0.09463948       1.10450706       0.45161651
C       -1.50249982       0.62431715       0.28230283
C       -2.82554710      -0.15892126       1.41020007
O       -2.36658252       1.08884676       1.19279867
H        3.77444639      -0.89453826      -0.98539972
H        2.62588492      -2.14785786      -1.46443917
H        2.90654460      -0.75714791      -2.51758606
H       -0.02446764       2.13672165       0.09082340
H        0.15799045       1.13929682       1.51704019
H       -1.87118344       0.29861262      -0.68338540
H       -3.88247727      -0.17084164       1.64048084
H       -2.33929790      -1.10598733       1.59665712
15
Frame=12 idx=009217 GeodesicLength=0.5330144660797852 rxn_smarts="[C:1]([C:2]#[C:3][C:4]([C@@:5]1([H:13])[C:6]([H:14])([H:15])[O:7]1)([H:11])[H:12])([H:8])([H:9])[H:10]>>[C:1]([C:2]#[C:3][C:4]([C:5](=[O+:7][C-:6]([H:14])[H:15])[H:13])([H:11])[H:12])([H:8])([H:9])[H:10]"
C        2.80375573      -1.08685858      -1.45852441
C        1.72399561      -0.35823625      -0.80254294
C        0.86579228       0.27347198      -0.25394015
C       -0.10073665       1.12552186       0.44084470
C       -1.51394016       0.65339125       0.28329140
C       -2.78655739      -0.18700389       1.39814615
O       -2.35454029       1.07900405       1.23536514
H        3.75958677      -0.89669429      -0.96810314
H        2.61528053      -2.16117876      -1.42758208
H        2.89435107      -0.78793756      -2.50396619
H       -0.02139799       2.15221791       0.06709031
H        0.15544910       1.16889030       1.50461798
H       -1.90128330       0.39421788      -0.69568942
H       -3.83601117      -0.22209016       1.65935678
H       -2.30374414      -1.14671574       1.52163585
15
Frame=13 idx=009217 GeodesicLength=0.5831564499620605 rxn_smarts="[C:1]([C:2]#[C:3][C:4]([C@@:5]1([H:13])[C:6]([H:14])([H:15])[O:7]1)([H:11])[H:12])([H:8])([H:9])[H:10]>>[C:1]([C:2]#[C:3][C:4]([C:5](=[O+:7][C-:6]([H:14])[H:15])[H:13])([H:11])[H:12])([H:8])([H:9])[H:10]"
C        2.78775235      -1.10129602      -1.43817451
C        1.70611078      -0.36019573      -0.79945368
C        0.84762418       0.28144853      -0.26280971
C       -0.10701692       1.14941480       0.42945706
C       -1.52507385       0.68365766       0.28543675
C       -2.74418005      -0.21717771       1.38339812
O       -2.34020788       1.06465812       1.27907884
H        3.74214109      -0.90274893      -0.94824906
H        2.59847487      -2.17476209      -1.38810457
H        2.88205323      -0.82159099      -2.48860512
H       -0.02046485       2.17056122       0.04289131
H        0.15410215       1.20134077       1.49118092
H       -1.93200995       0.49169742      -0.70160181
H       -3.78452553      -0.27949615       1.67527520
H       -2.26477962      -1.18551091       1.44028027
15
Frame=14 idx=009217 GeodesicLength=0.6343231884703578 rxn_smarts="[C:1]([C:2]#[C:3][C:4]([C@@:5]1([H:13])[C:6]([H:14])([H:15])[O:7]1)([H:11])[H:12])([H:8])([H:9])[H:10]>>[C:1]([C:2]#[C:3][C:4]([C:5](=[O+:7][C-:6]([H:14])[H:15])[H:13])([H:11])[H:12])([H:8])([H:9])[H:10]"
C        2.77120982      -1.11559758      -1.41741100
C        1.68759173      -0.36183307      -0.79707765
C        0.82897726       0.28988143      -0.27275487
C       -0.11324492       1.17333240       0.41772402
C       -1.53582899       0.71280861       0.28967877
C       -2.70105921      -0.24676672       1.36702677
O       -2.32311109       1.04690167       1.32324360
H        3.72405753      -0.90821026      -0.92813148
H        2.58109014      -2.18780305      -1.34734532
H        2.86940793      -0.85609800      -2.47266940
H       -0.02093085       2.18846081       0.01750978
H        0.15414509       1.23468332       1.47688414
H       -1.96337630       0.58814458      -0.69994246
H       -3.73104261      -0.33749775       1.68778387
H       -2.22788553      -1.22040640       1.35548123
15
Frame=15 idx=009217 GeodesicLength=0.6871151282376795 rxn_smarts="[C:1]([C:2]#[C:3][C:4]([C@@:5]1([H:13])[C:6]([H:14])([H:15])[O:7]1)([H:11])[H:12])([H:8])([H:9])[H:10]>>[C:1]([C:2]#[C:3][C:4]([C:5](=[O+:7][C-:6]([H:14])[H:15])[H:13])([H:11])[H:12])([H:8])([H:9])[H:10]"
C        2.75301066      -1.13038795      -1.39552999
C        1.66842874      -0.36177408      -0.79538390
C        0.80999487       0.30074674      -0.28430187
C       -0.11971069       1.19858011       0.40541507
C       -1.54634887       0.74189974       0.29533736
C       -2.65553701      -0.27679269       1.34841998
O       -2.30333542       1.02523071       1.36731192
H        3.70420730      -0.91596837      -0.90605035
H        2.55966639      -2.20051846      -1.30533672
H        2.85679981      -0.89176884      -2.45518328
H       -0.02334190       2.20753886      -0.00863398
H        0.15503211       1.26959682       1.46160039
H       -1.99558758       0.68374281      -0.69133159
H       -3.67344546      -0.39876855       1.69709525
H       -2.18983294      -1.25135685       1.26657171
15
Frame=16 idx=009217 GeodesicLength=0.7409148429492637 rxn_smarts="[C:1]([C:2]#[C:3][C:4]([C@@:5]1([H:13])[C:6]([H:14])([H:15])[O:7]1)([H:11])[H:12])([H:8])([H:9])[H:10]>>[C:1]([C:2]#[C:3][C:4]([C:5](=[O+:7][C-:6]([H:14])[H:15])[H:13])([H:11])[H:12])([H:8])([H:9])[H:10]"
C        2.73406466      -1.14491605      -1.37347607
C        1.64935714      -0.36128830      -0.79325638
C        0.79133088       0.31196578      -0.29550052
C       -0.12601086       1.22356355       0.39357087
C       -1.55627515       0.76983741       0.30267525
C       -2.60957607      -0.30580534       1.32737409
O       -2.28111748       1.00045642       1.41020445
H        3.68459533      -0.92127824      -0.88681965
H        2.53866218      -2.21245332      -1.25993315
H        2.84064411      -0.92997879      -2.43791987
H       -0.02666975       2.22608617      -0.03462027
H        0.15640071       1.30456240       1.44652642
H       -2.02743119       0.77686731      -0.67594138
H       -3.61407575      -0.46025722       1.70199418
H       -2.15389875      -1.27736176       1.17512204
