14
Frame=0 idx=003751 GeodesicLength=0.0 rxn_smarts="[C:1]([C@@:2]1([H:10])[O:3][C@@:4]2([H:11])[C:5]([H:12])([H:13])[C@@:6]12[H:14])([H:7])([H:8])[H:9]>>[C:1](=[C:2]([C@@:6]1([H:14])[C@:4]([O:3][H:7])([H:11])[C:5]1([H:12])[H:13])[H:10])([H:8])[H:9]"
C       -1.60583920      -0.80891334       0.00506252
C       -0.82373183       0.11077414      -0.70191879
O       -0.33274377       1.29841297       0.89870387
C        0.91590305       1.01570345       0.37107140
C        1.38817736      -0.40175167       0.44693660
C        0.66549887       0.08236248      -0.78714963
H       -1.17327602       0.06610100       0.83929492
H       -1.16577572      -1.75746255       0.28769941
H       -2.68280311      -0.76561104      -0.09394979
H       -1.30655306       0.91269107      -1.24949213
H        1.63739897       1.82510908       0.31180042
H        2.44498971      -0.58135605       0.29677619
H        0.90847046      -1.08215830       1.13995387
H        1.13028432       0.08609881      -1.76478881
14
Frame=1 idx=003751 GeodesicLength=0.05832295206730821 rxn_smarts="[C:1]([C@@:2]1([H:10])[O:3][C@@:4]2([H:11])[C:5]([H:12])([H:13])[C@@:6]12[H:14])([H:7])([H:8])[H:9]>>[C:1](=[C:2]([C@@:6]1([H:14])[C@:4]([O:3][H:7])([H:11])[C:5]1([H:12])[H:13])[H:10])([H:8])[H:9]"
C       -1.61008200      -0.80461803       0.00928971
C       -0.82380813       0.11239839      -0.69886080
O       -0.32972989       1.29386217       0.90115890
C        0.92007674       1.01320314       0.37224526
C        1.39276316      -0.40368221       0.44310575
C        0.66513319       0.08201479      -0.78712000
H       -1.18715526       0.07643516       0.86209720
H       -1.16724595      -1.74895498       0.30251001
H       -2.68457378      -0.77576037      -0.11916850
H       -1.30731819       0.90499338      -1.25973608
H        1.63839340       1.82507880       0.31290194
H        2.44927361      -0.58285942       0.29027320
H        0.91452558      -1.08528946       1.13591989
H        1.12974753       0.09317864      -1.76461647
14
Frame=2 idx=003751 GeodesicLength=0.11662206958630342 rxn_smarts="[C:1]([C@@:2]1([H:10])[O:3][C@@:4]2([H:11])[C:5]([H:12])([H:13])[C@@:6]12[H:14])([H:7])([H:8])[H:9]>>[C:1](=[C:2]([C@@:6]1([H:14])[C@:4]([O:3][H:7])([H:11])[C:5]1([H:12])[H:13])[H:10])([H:8])[H:9]"
C       -1.61441854      -0.79997683       0.01362051
C       -0.82387790       0.11404379      -0.69603759
O       -0.32682283       1.28904923       0.90368383
C        0.92416376       1.01060216       0.37344589
C        1.39728695      -0.40569834       0.43915309
C        0.66478426       0.08170236      -0.78717846
H       -1.20127704       0.08720187       0.88511616
H       -1.16890376      -1.73999577       0.31747654
H       -2.68546837      -0.78631715      -0.14417095
H       -1.30800306       0.89702986      -1.27022225
H        1.63926401       1.82497460       0.31421734
H        2.45350579      -0.58439281       0.28370177
H        0.92048011      -1.08859895       1.13164288
H        1.12928662       0.10037598      -1.76444875
14
Frame=3 idx=003751 GeodesicLength=0.1749009554682004 rxn_smarts="[C:1]([C@@:2]1([H:10])[O:3][C@@:4]2([H:11])[C:5]([H:12])([H:13])[C@@:6]12[H:14])([H:7])([H:8])[H:9]>>[C:1](=[C:2]([C@@:6]1([H:14])[C@:4]([O:3][H:7])([H:11])[C:5]1([H:12])[H:13])[H:10])([H:8])[H:9]"
C       -1.61885547      -0.79497669       0.01804635
C       -0.82393866       0.11570618      -0.69346557
O       -0.32403142       1.28396034       0.90627696
C        0.92815853       1.00789504       0.37467597
C        1.40174616      -0.40780327       0.43507472
C        0.66445549       0.08142743      -0.78733032
H       -1.21563720       0.09841909       0.90835668
H       -1.17075170      -1.73056610       0.33259249
H       -2.68546848      -0.79729395      -0.16891348
H       -1.30860498       0.88879210      -1.28095896
H        1.64000364       1.82479224       0.31575975
H        2.45768544      -0.58595541       0.27706393
H        0.92632745      -1.09209779       1.12710742
H        1.12891120       0.10770081      -1.76428594
14
Frame=4 idx=003751 GeodesicLength=0.23316916961952275 rxn_smarts="[C:1]([C@@:2]1([H:10])[O:3][C@@:4]2([H:11])[C:5]([H:12])([H:13])[C@@:6]12[H:14])([H:7])([H:8])[H:9]>>[C:1](=[C:2]([C@@:6]1([H:14])[C@:4]([O:3][H:7])([H:11])[C:5]1([H:12])[H:13])[H:10])([H:8])[H:9]"
C       -1.62339796      -0.78960551       0.02255509
C       -0.82398665       0.11737823      -0.69116600
O       -0.32136889       1.27857775       0.90893479
C        0.93205293       1.00507631       0.37593839
C        1.40613865      -0.40999928       0.43086697
C        0.66415202       0.08119205      -0.78758186
H       -1.23022325       0.11009762       0.93182679
H       -1.17279189      -1.72064982       0.34784861
H       -2.68456491      -0.80868737      -0.19333981
H       -1.30911957       0.88026765      -1.29196022
H        1.64060093       1.82452943       0.31754465
H        2.46181284      -0.58754312       0.27036419
H        0.93206118      -1.09579846       1.12229643
H        1.12863459       0.11516454      -1.76412803
14
Frame=5 idx=003751 GeodesicLength=0.29142860656502356 rxn_smarts="[C:1]([C@@:2]1([H:10])[O:3][C@@:4]2([H:11])[C:5]([H:12])([H:13])[C@@:6]12[H:14])([H:7])([H:8])[H:9]>>[C:1](=[C:2]([C@@:6]1([H:14])[C@:4]([O:3][H:7])([H:11])[C:5]1([H:12])[H:13])[H:10])([H:8])[H:9]"
C       -1.62805265      -0.78385009       0.02713394
C       -0.82401889       0.11905438      -0.68915596
O       -0.31884564       1.27288665       0.91165498
C        0.93584051       1.00214030       0.37723655
C        1.41046169      -0.41228922       0.42652630
C        0.66387798       0.08099909      -0.78793863
H       -1.24502672       0.12225446       0.95553113
H       -1.17502703      -1.71022783       0.36323499
H       -2.68274198      -0.82050724      -0.21739764
H       -1.30954346       0.87144607      -1.30323624
H        1.64104753       1.82418168       0.31958673
H        2.46588752      -0.58915396       0.26360581
H        0.93767372      -1.09971261       1.11719284
H        1.12846740       0.12277834      -1.76397481
14
Frame=6 idx=003751 GeodesicLength=0.349680243420277 rxn_smarts="[C:1]([C@@:2]1([H:10])[O:3][C@@:4]2([H:11])[C:5]([H:12])([H:13])[C@@:6]12[H:14])([H:7])([H:8])[H:9]>>[C:1](=[C:2]([C@@:6]1([H:14])[C@:4]([O:3][H:7])([H:11])[C:5]1([H:12])[H:13])[H:10])([H:8])[H:9]"
C       -1.63282661      -0.77769832       0.03176344
C       -0.82403096       0.12072835      -0.68745473
O       -0.31647388       1.26687170       0.91443317
C        0.93951354       0.99908075       0.37857411
C        1.41471205      -0.41467624       0.42204935
C        0.66363874       0.08085211      -0.78840686
H       -1.26004142       0.13490758       0.97947028
H       -1.17745925      -1.69928044       0.37873409
H       -2.67998198      -0.83275950      -0.24101405
H       -1.30987105       0.86231334      -1.31479885
H        1.64133296       1.82374367       0.32190297
H        2.46990916      -0.59078558       0.25679406
H        0.94315589      -1.10385324       1.11177816
H        1.12842281       0.13055582      -1.76382514
14
Frame=7 idx=003751 GeodesicLength=0.40793092711639944 rxn_smarts="[C:1]([C@@:2]1([H:10])[O:3][C@@:4]2([H:11])[C:5]([H:12])([H:13])[C@@:6]12[H:14])([H:7])([H:8])[H:9]>>[C:1](=[C:2]([C@@:6]1([H:14])[C@:4]([O:3][H:7])([H:11])[C:5]1([H:12])[H:13])[H:10])([H:8])[H:9]"
C       -1.63772276      -0.77114767       0.03641887
C       -0.82401856       0.12239142      -0.68608262
O       -0.31426870       1.26051644       0.91726366
C        0.94306321       0.99589277       0.37995536
C        1.41888763      -0.41716082       0.41743412
C        0.66344047       0.08075450      -0.78899222
H       -1.27524592       0.14806378       1.00364747
H       -1.18008533      -1.68779806       0.39432944
H       -2.67629069      -0.84542447      -0.26411542
H       -1.31009822       0.85285221      -1.32666376
H        1.64144547       1.82321315       0.32451099
H        2.47387834      -0.59243201       0.24993661
H        0.94849990      -1.10823112       1.10603519
H        1.12851516       0.13850989      -1.76367770
14
Frame=8 idx=003751 GeodesicLength=0.46618046654094486 rxn_smarts="[C:1]([C@@:2]1([H:10])[O:3][C@@:4]2([H:11])[C:5]([H:12])([H:13])[C@@:6]12[H:14])([H:7])([H:8])[H:9]>>[C:1](=[C:2]([C@@:6]1([H:14])[C@:4]([O:3][H:7])([H:11])[C:5]1([H:12])[H:13])[H:10])([H:8])[H:9]"
C       -1.64274283      -0.76419042       0.04107839
C       -0.82397367       0.12403562      -0.68506127
O       -0.31224890       1.25380457       0.92013770
C        0.94647835       0.99257166       0.38138244
C        1.42298742      -0.41974471       0.41267738
C        0.66329241       0.08071029      -0.78970108
H       -1.29062524       0.16172806       1.02806719
H       -1.18290804      -1.67576690       0.40999718
H       -2.67167150      -0.85848932      -0.28661511
H       -1.31021512       0.84304809      -1.33884732
H        1.64136806       1.82258801       0.32742742
H        2.47779812      -0.59408953       0.24304249
H        0.95369835      -1.11285943       1.09994325
H        1.12876259       0.14665400      -1.76352865
14
Frame=9 idx=003751 GeodesicLength=0.524440761807769 rxn_smarts="[C:1]([C@@:2]1([H:10])[O:3][C@@:4]2([H:11])[C:5]([H:12])([H:13])[C@@:6]12[H:14])([H:7])([H:8])[H:9]>>[C:1](=[C:2]([C@@:6]1([H:14])[C@:4]([O:3][H:7])([H:11])[C:5]1([H:12])[H:13])[H:10])([H:8])[H:9]"
C       -1.64787498      -0.75686083       0.04569519
C       -0.82389669       0.12563115      -0.68439718
O       -0.31042358       1.24672511       0.92304372
C        0.94975077       0.98911388       0.38286098
C        1.42701171      -0.42241845       0.40778510
C        0.66319520       0.08072036      -0.79053408
H       -1.30614233       0.17587746       1.05273955
H       -1.18588610      -1.66321125       0.42571319
H       -2.66618525      -0.87182285      -0.30846152
H       -1.31022904       0.83285093      -1.35135671
H        1.64108979       1.82186406       0.33066464
H        2.48166830      -0.59573580       0.23612403
H        0.95875318      -1.11773240       1.09349866
H        1.12916900       0.15499865      -1.76337557
14
Frame=10 idx=003751 GeodesicLength=0.5826934612386334 rxn_smarts="[C:1]([C@@:2]1([H:10])[O:3][C@@:4]2([H:11])[C:5]([H:12])([H:13])[C@@:6]12[H:14])([H:7])([H:8])[H:9]>>[C:1](=[C:2]([C@@:6]1([H:14])[C@:4]([O:3][H:7])([H:11])[C:5]1([H:12])[H:13])[H:10])([H:8])[H:9]"
C       -1.65313335      -0.74912397       0.05026271
C       -0.82377579       0.12718291      -0.68411657
O       -0.30881336       1.23925860       0.92597968
C        0.95287012       0.98551300       0.38439491
C        1.43095851      -0.42519036       0.40274896
C        0.66316199       0.08079317      -0.79149989
H       -1.32178999       0.19055284       1.07765447
H       -1.18905297      -1.65009155       0.44144613
H       -2.65979961      -0.88550014      -0.32954415
H       -1.31011997       0.82225743      -1.36421403
H        1.64059376       1.82103692       0.33424656
H        2.48549343      -0.59737724       0.22918596
H        0.96365011      -1.12287638       1.08666827
H        1.12975712       0.16356477      -1.76321302
14
Frame=11 idx=003751 GeodesicLength=0.6409408835477217 rxn_smarts="[C:1]([C@@:2]1([H:10])[O:3][C@@:4]2([H:11])[C:5]([H:12])([H:13])[C@@:6]12[H:14])([H:7])([H:8])[H:9]>>[C:1](=[C:2]([C@@:6]1([H:14])[C@:4]([O:3][H:7])([H:11])[C:5]1([H:12])[H:13])[H:10])([H:8])[H:9]"
C       -1.65851487      -0.74098753       0.05475504
C       -0.82360862       0.12867566      -0.68423413
O       -0.30743227       1.23139066       0.92893875
C        0.95582783       0.98176534       0.38599002
C        1.43482700      -0.42805695       0.39757004
C        0.66319767       0.08093202      -0.79260259
H       -1.33752829       0.20575456       1.10281898
H       -1.19240226      -1.63641280       0.45717276
H       -2.65254612      -0.89947114      -0.34980173
H       -1.30988561       0.81123619      -1.37743465
H        1.63986833       1.82010562       0.33819054
H        2.48927512      -0.59900085       0.22223768
H        0.96838442      -1.12829699       1.07943748
H        1.13053766       0.17236621      -1.76303819
14
Frame=12 idx=003751 GeodesicLength=0.6991865222589096 rxn_smarts="[C:1]([C@@:2]1([H:10])[O:3][C@@:4]2([H:11])[C:5]([H:12])([H:13])[C@@:6]12[H:14])([H:7])([H:8])[H:9]>>[C:1](=[C:2]([C@@:6]1([H:14])[C@:4]([O:3][H:7])([H:11])[C:5]1([H:12])[H:13])[H:10])([H:8])[H:9]"
C       -1.66401611      -0.73246035       0.05914192
C       -0.82338921       0.13009538      -0.68476374
O       -0.30629650       1.22311016       0.93191059
C        0.95861378       0.97786794       0.38765098
C        1.43861698      -0.43101496       0.39224927
C        0.66330952       0.08114211      -0.79384565
H       -1.35331984       0.22148341       1.12823974
H       -1.19592818      -1.62217805       0.47285769
H       -2.64446137      -0.91368750      -0.36915499
H       -1.30951805       0.79975226      -1.39103484
H        1.63889827       1.81906738       0.34251395
H        2.49301637      -0.60059580       0.21529047
H        0.97295102      -1.13400072       1.07178969
H        1.13152332       0.18141874      -1.76284509
14
Frame=13 idx=003751 GeodesicLength=0.7574263494311839 rxn_smarts="[C:1]([C@@:2]1([H:10])[O:3][C@@:4]2([H:11])[C:5]([H:12])([H:13])[C@@:6]12[H:14])([H:7])([H:8])[H:9]>>[C:1](=[C:2]([C@@:6]1([H:14])[C@:4]([O:3][H:7])([H:11])[C:5]1([H:12])[H:13])[H:10])([H:8])[H:9]"
C       -1.66963046      -0.72355607       0.06339352
C       -0.82311212       0.13142666      -0.68571789
O       -0.30542265       1.21440687       0.93488414
C        0.96121795       0.97381957       0.38938210
C        1.44232979      -0.43405852       0.38678942
C        0.66350497       0.08142792      -0.79523139
H       -1.36911853       0.23773020       1.15392460
H       -1.19962241      -1.60740152       0.48846539
H       -2.63560068      -0.92808352      -0.38753281
H       -1.30900986       0.78776923      -1.40503060
H        1.63766843       1.81792257       0.34723138
H        2.49672184      -0.60214825       0.20835707
H        0.97734728      -1.13999030       1.06371256
H        1.13272646       0.19073516      -1.76262749
14
Frame=14 idx=003751 GeodesicLength=0.815661466474039 rxn_smarts="[C:1]([C@@:2]1([H:10])[O:3][C@@:4]2([H:11])[C:5]([H:12])([H:13])[C@@:6]12[H:14])([H:7])([H:8])[H:9]>>[C:1](=[C:2]([C@@:6]1([H:14])[C@:4]([O:3][H:7])([H:11])[C:5]1([H:12])[H:13])[H:10])([H:8])[H:9]"
C       -1.67535172      -0.71429000       0.06748027
C       -0.82277205       0.13265565      -0.68710513
O       -0.30482520       1.20527454       0.93784830
C        0.96363154       0.96961932       0.39118789
C        1.44596636      -0.43718190       0.38119351
C        0.66379057       0.08179475      -0.79676124
H       -1.38487580       0.25449283       1.17988311
H       -1.20347659      -1.59209606       0.50395478
H       -2.62602145      -0.94259925      -0.40486949
H       -1.30835297       0.77524318      -1.41943540
H        1.63616501       1.81666912       0.35235783
H        2.50039564      -0.60364539       0.20144967
H        0.98157021      -1.14626742       1.05519278
H        1.13415645       0.20033064      -1.76237688
14
Frame=15 idx=003751 GeodesicLength=0.8738913022150303 rxn_smarts="[C:1]([C@@:2]1([H:10])[O:3][C@@:4]2([H:11])[C:5]([H:12])([H:13])[C@@:6]12[H:14])([H:7])([H:8])[H:9]>>[C:1](=[C:2]([C@@:6]1([H:14])[C@:4]([O:3][H:7])([H:11])[C:5]1([H:12])[H:13])[H:10])([H:8])[H:9]"
C       -1.68117244      -0.70468020       0.07137485
C       -0.82236431       0.13376821      -0.68893204
O       -0.30451875       1.19570971       0.94079024
C        0.96584506       0.96526839       0.39307123
C        1.44952844      -0.44037672       0.37546619
C        0.66417221       0.08224728      -0.79843501
H       -1.40053192       0.27175768       1.20613289
H       -1.20748324      -1.57628420       0.51928374
H       -2.61579215      -0.95716263      -0.42111359
H       -1.30753775       0.76213132      -1.43426093
H        1.63437307       1.81530794       0.35790278
H        2.50404196      -0.60507261       0.19458247
H        0.98561869      -1.15282919       1.04622161
H        1.13582115       0.21021501      -1.76208443
14
Frame=16 idx=003751 GeodesicLength=0.9321165405200582 rxn_smarts="[C:1]([C@@:2]1([H:10])[O:3][C@@:4]2([H:11])[C:5]([H:12])([H:13])[C@@:6]12[H:14])([H:7])([H:8])[H:9]>>[C:1](=[C:2]([C@@:6]1([H:14])[C@:4]([O:3][H:7])([H:11])[C:5]1([H:12])[H:13])[H:10])([H:8])[H:9]"
C       -1.68708378      -0.69474797       0.07504774
C       -0.82188451       0.13475070      -0.69120336
O       -0.30451718       1.18571176       0.94369676
C        0.96784998       0.96076919       0.39503576
C        1.45301766      -0.44363366       0.36961364
C        0.66465561       0.08279082      -0.80025167
H       -1.41602092       0.28951173       1.23269274
H       -1.21163261      -1.55999214       0.53440542
H       -2.60499274      -0.97169666      -0.43621641
H       -1.30655469       0.74838204      -1.44951877
H        1.63227936       1.81383994       0.36387631
H        2.50766503      -0.60641443       0.18777038
H        0.98949169      -1.15967063       1.03679190
H        1.13772711       0.22039932      -1.76174044
