8
Frame=0 idx=002731 GeodesicLength=0.0 rxn_smarts="[O:1]=[C:2]([C:3]#[C:4][C:5]#[C:6][H:8])[H:7]>>[O:1]=[C:2]([C:3]12[C:4]3=[C:5]1[C:6]23[H:8])[H:7]"
O       -1.30956824      -1.44307665      -0.12860003
C       -1.26659093      -0.29907467       0.22220062
C       -0.00340375       0.48006886       0.25208163
C        0.17394130       1.73283199      -0.22886370
C        1.22114901       0.71233088      -0.84939737
C        1.38477899      -0.33372631      -0.15818581
H       -2.14525151       0.26453814       0.57293342
H        1.94494513      -1.11389224       0.31783124
8
Frame=1 idx=002731 GeodesicLength=0.10050209385235674 rxn_smarts="[O:1]=[C:2]([C:3]#[C:4][C:5]#[C:6][H:8])[H:7]>>[O:1]=[C:2]([C:3]12[C:4]3=[C:5]1[C:6]23[H:8])[H:7]"
O       -1.34243441      -1.45001231      -0.10157592
C       -1.28931604      -0.29901717       0.22455899
C       -0.01745301       0.46396887       0.25932927
C        0.19280725       1.71475642      -0.20407868
C        1.22496719       0.71509619      -0.85373627
C        1.40365026      -0.33393910      -0.16703078
H       -2.17001216       0.28231392       0.54038149
H        1.99779092      -1.09316681       0.30215189
8
Frame=2 idx=002731 GeodesicLength=0.20085343392365454 rxn_smarts="[O:1]=[C:2]([C:3]#[C:4][C:5]#[C:6][H:8])[H:7]>>[O:1]=[C:2]([C:3]12[C:4]3=[C:5]1[C:6]23[H:8])[H:7]"
O       -1.37699548      -1.45617840      -0.07442380
C       -1.31254572      -0.29885150       0.22686025
C       -0.03172192       0.44715957       0.26625186
C        0.21112123       1.69504020      -0.17962594
C        1.22971629       0.71809753      -0.85738849
C        1.42327547      -0.33398298      -0.17549274
H       -2.19369020       0.29987970       0.50792946
H        2.05084034      -1.07116413       0.28588939
8
Frame=3 idx=002731 GeodesicLength=0.3010406703617642 rxn_smarts="[O:1]=[C:2]([C:3]#[C:4][C:5]#[C:6][H:8])[H:7]>>[O:1]=[C:2]([C:3]12[C:4]3=[C:5]1[C:6]23[H:8])[H:7]"
O       -1.41330624      -1.46140744      -0.04759476
C       -1.33622226      -0.29860659       0.22917121
C       -0.04622327       0.42967720       0.27266875
C        0.22870716       1.67364041      -0.15594174
C        1.23555618       0.72133773      -0.86030191
C        1.44381944      -0.33370850      -0.18337161
H       -2.21619807       0.31707548       0.47617955
H        2.10386707      -1.04800828       0.26919051
8
Frame=4 idx=002731 GeodesicLength=0.4010597707986067 rxn_smarts="[O:1]=[C:2]([C:3]#[C:4][C:5]#[C:6][H:8])[H:7]>>[O:1]=[C:2]([C:3]12[C:4]3=[C:5]1[C:6]23[H:8])[H:7]"
O       -1.45131758      -1.46563430      -0.02120838
C       -1.36029833      -0.29829137       0.23155572
C       -0.06097283       0.41152498       0.27845083
C        0.24540847       1.65056817      -0.13323056
C        1.24257268       0.72485979      -0.86243213
C        1.46542857      -0.33300113      -0.19057037
H       -2.23757564       0.33386948       0.44535822
H        2.15675466      -1.02389562       0.25207668
8
Frame=5 idx=002731 GeodesicLength=0.5009204065058648 rxn_smarts="[O:1]=[C:2]([C:3]#[C:4][C:5]#[C:6][H:8])[H:7]>>[O:1]=[C:2]([C:3]12[C:4]3=[C:5]1[C:6]23[H:8])[H:7]"
O       -1.49119883      -1.46877131       0.00361256
C       -1.38477873      -0.29795544       0.23393647
C       -0.07599361       0.39274890       0.28324750
C        0.26109267       1.62595208      -0.11219047
C        1.25092430       0.72859818      -0.86399392
C        1.48825231      -0.33181960      -0.19693579
H       -2.25770991       0.35009879       0.41700060
H        2.20941180      -0.99885160       0.23532305
8
Frame=6 idx=002731 GeodesicLength=0.6005175357379963 rxn_smarts="[O:1]=[C:2]([C:3]#[C:4][C:5]#[C:6][H:8])[H:7]>>[O:1]=[C:2]([C:3]12[C:4]3=[C:5]1[C:6]23[H:8])[H:7]"
O       -1.53276716      -1.47105363       0.02746075
C       -1.40961214      -0.29760545       0.23641412
C       -0.09125882       0.37327488       0.28707260
C        0.27572187       1.59992914      -0.09254580
C        1.26052445       0.73274252      -0.86491783
C        1.51234474      -0.33011761      -0.20257274
H       -2.27682886       0.36600341       0.39044370
H        2.26187592      -0.97317325       0.21864520
8
Frame=7 idx=002731 GeodesicLength=0.6999639167623914 rxn_smarts="[O:1]=[C:2]([C:3]#[C:4][C:5]#[C:6][H:8])[H:7]>>[O:1]=[C:2]([C:3]12[C:4]3=[C:5]1[C:6]23[H:8])[H:7]"
O       -1.57618541      -1.47201279       0.04952224
C       -1.43486989      -0.29722433       0.23852882
C       -0.10686447       0.35298520       0.28931277
C        0.28936812       1.57207720      -0.07487866
C        1.27174271       0.73706233      -0.86522931
C        1.53781740      -0.32778879      -0.20748201
H       -2.29488327       0.38125827       0.36744159
H        2.31387481      -0.94635708       0.20278456
8
Frame=8 idx=002731 GeodesicLength=0.7991079791557019 rxn_smarts="[O:1]=[C:2]([C:3]#[C:4][C:5]#[C:6][H:8])[H:7]>>[O:1]=[C:2]([C:3]12[C:4]3=[C:5]1[C:6]23[H:8])[H:7]"
O       -1.62127132      -1.47208343       0.06985157
C       -1.46047504      -0.29691624       0.24106453
C       -0.12272734       0.33193978       0.29017651
C        0.30178286       1.54286576      -0.05926596
C        1.28432563       0.74176864      -0.86500849
C        1.56479000      -0.32468303      -0.21137084
H       -2.31215278       0.39627682       0.34719190
H        2.36572800      -0.91916830       0.18736078
8
Frame=9 idx=002731 GeodesicLength=0.8981143333248903 rxn_smarts="[O:1]=[C:2]([C:3]#[C:4][C:5]#[C:6][H:8])[H:7]>>[O:1]=[C:2]([C:3]12[C:4]3=[C:5]1[C:6]23[H:8])[H:7]"
O       -1.66808533      -1.47129989       0.08917722
C       -1.48654944      -0.29662933       0.24332053
C       -0.13895102       0.30992116       0.28927920
C        0.31317701       1.51214801      -0.04523116
C        1.29837955       0.74700982      -0.86418379
C        1.59328091      -0.32098596      -0.21473627
H       -2.32880241       0.41114433       0.32978550
H        2.41755073      -0.89130814       0.17258878
8
Frame=10 idx=002731 GeodesicLength=0.9968489274861364 rxn_smarts="[O:1]=[C:2]([C:3]#[C:4][C:5]#[C:6][H:8])[H:7]>>[O:1]=[C:2]([C:3]12[C:4]3=[C:5]1[C:6]23[H:8])[H:7]"
O       -1.71675763      -1.46951716       0.10754484
C       -1.51307326      -0.29641338       0.24601181
C       -0.15546285       0.28663836       0.28658783
C        0.32365129       1.47961397      -0.03281739
C        1.31383901       0.75278261      -0.86259044
C        1.62321688      -0.31643787      -0.21741887
H       -2.34476926       0.42594497       0.31457216
H        2.46935582      -0.86261150       0.15811006
8
Frame=11 idx=002731 GeodesicLength=1.0955257306235173 rxn_smarts="[O:1]=[C:2]([C:3]#[C:4][C:5]#[C:6][H:8])[H:7]>>[O:1]=[C:2]([C:3]12[C:4]3=[C:5]1[C:6]23[H:8])[H:7]"
O       -1.76729802      -1.46699253       0.12484494
C       -1.54019294      -0.29623551       0.24879806
C       -0.17241508       0.26202377       0.28166823
C        0.33297974       1.44553529      -0.02201672
C        1.33067666       0.75922343      -0.86047002
C        1.65487986      -0.31138394      -0.21966670
H       -2.36037454       0.44103936       0.30231221
H        2.52174432      -0.83320987       0.14452999
8
Frame=12 idx=002731 GeodesicLength=1.1939712339681885 rxn_smarts="[O:1]=[C:2]([C:3]#[C:4][C:5]#[C:6][H:8])[H:7]>>[O:1]=[C:2]([C:3]12[C:4]3=[C:5]1[C:6]23[H:8])[H:7]"
O       -1.82019482      -1.46314210       0.14124953
C       -1.56786418      -0.29618418       0.25127098
C       -0.18976545       0.23559348       0.27360405
C        0.34180077       1.40893934      -0.01309612
C        1.34924037       0.76625237      -0.85734479
C        1.68796453      -0.30547121      -0.22161800
H       -2.37515149       0.45605862       0.29381084
H        2.57397028      -0.80204633       0.13212351
8
Frame=13 idx=002731 GeodesicLength=1.292302760598347 rxn_smarts="[O:1]=[C:2]([C:3]#[C:4][C:5]#[C:6][H:8])[H:7]>>[O:1]=[C:2]([C:3]12[C:4]3=[C:5]1[C:6]23[H:8])[H:7]"
O       -1.87528892      -1.45836371       0.15698178
C       -1.59618352      -0.29623329       0.25374164
C       -0.20769623       0.20723618       0.26204495
C        0.34967729       1.37024661      -0.00589471
C        1.36936164       0.77424412      -0.85334189
C        1.72278146      -0.29891553      -0.22327423
H       -2.38941681       0.47152540       0.28879238
H        2.62676509      -0.76973978       0.12095007
8
Frame=14 idx=002731 GeodesicLength=1.3904869788364345 rxn_smarts="[O:1]=[C:2]([C:3]#[C:4][C:5]#[C:6][H:8])[H:7]>>[O:1]=[C:2]([C:3]12[C:4]3=[C:5]1[C:6]23[H:8])[H:7]"
O       -1.93252461      -1.45256697       0.17243535
C       -1.62509479      -0.29642081       0.25665951
C       -0.22631407       0.17678298       0.24628912
C        0.35674741       1.32920687      -0.00032457
C        1.39106802       0.78349042      -0.84811037
C        1.75924782      -0.29160913      -0.22473976
H       -2.40306177       0.48743820       0.28684744
H        2.67993200      -0.73632156       0.11094329
8
Frame=15 idx=002731 GeodesicLength=1.4886822119389251 rxn_smarts="[O:1]=[C:2]([C:3]#[C:4][C:5]#[C:6][H:8])[H:7]>>[O:1]=[C:2]([C:3]12[C:4]3=[C:5]1[C:6]23[H:8])[H:7]"
O       -1.99188938      -1.44584055       0.18822200
C       -1.65465805      -0.29675754       0.26002835
C       -0.24589568       0.14389411       0.22488317
C        0.36286460       1.28565955       0.00375807
C        1.41452441       0.79459556      -0.84130676
C        1.79754717      -0.28371075      -0.22635223
H       -2.41620591       0.50410648       0.28823980
H        2.73371285      -0.70194685       0.10252759
8
Frame=16 idx=002731 GeodesicLength=1.5866882014087982 rxn_smarts="[O:1]=[C:2]([C:3]#[C:4][C:5]#[C:6][H:8])[H:7]>>[O:1]=[C:2]([C:3]12[C:4]3=[C:5]1[C:6]23[H:8])[H:7]"
O       -2.05409537      -1.43699889       0.20455672
C       -1.68445819      -0.29738476       0.26402536
C       -0.26660676       0.10822349       0.19543807
C        0.36900133       1.23810333       0.00566476
C        1.44008098       0.80734188      -0.83172392
C        1.83684477      -0.27450976      -0.22785063
H       -2.42732541       0.52049982       0.29397168
H        2.78655865      -0.66527511       0.09591796
