13
Frame=0 idx=006511 GeodesicLength=0.0 rxn_smarts="[C:1](#[C:2][C@:3]12[C:4]([H:9])([H:10])[C@@:5]1([H:11])[O:6][C:7]2([H:12])[H:13])[H:8]>>[C:1]1([H:8])=[C:2]=[C:3]2[C:4]([H:9])([H:10])[C@@:5]1([H:11])[O:6][C:7]2([H:12])[H:13]"
C        1.53060760       0.37240643       0.35669371
C        1.74964982       0.28352580      -0.93892309
C        0.30966027       0.03703070      -0.72475656
C       -0.75724592       1.04751918      -0.36782614
C       -0.39875602       0.33789190       0.88432429
O       -0.86898850      -0.97994467       0.82324443
C       -0.33671806      -1.31997780      -0.46929631
H        2.00778645       0.21716336       1.30950651
H       -1.75910984       0.87388400      -0.75274585
H       -0.41255989       2.07148553      -0.44233567
H       -0.33010858       0.76557146       1.87504016
H        0.39024566      -2.12500414      -0.37509367
H       -1.12446299      -1.58155173      -1.17783185
13
Frame=1 idx=006511 GeodesicLength=0.09515242875161165 rxn_smarts="[C:1](#[C:2][C@:3]12[C:4]([H:9])([H:10])[C@@:5]1([H:11])[O:6][C:7]2([H:12])[H:13])[H:8]>>[C:1]1([H:8])=[C:2]=[C:3]2[C:4]([H:9])([H:10])[C@@:5]1([H:11])[O:6][C:7]2([H:12])[H:13]"
C        1.55021910       0.37789099       0.36926874
C        1.73657619       0.28010813      -0.92678802
C        0.30276941       0.03270203      -0.72878595
C       -0.75828451       1.04817670      -0.37029426
C       -0.39544588       0.33535858       0.88200191
O       -0.87240828      -0.98195492       0.81930271
C       -0.34233674      -1.32375544      -0.47383295
H        2.04461857       0.23425771       1.31471501
H       -1.76172075       0.87777159      -0.75270472
H       -0.41134532       2.07132393      -0.44521809
H       -0.34507814       0.76283529       1.87415883
H        0.38410202      -2.12954215      -0.38108511
H       -1.13166567      -1.58517245      -1.18073809
13
Frame=2 idx=006511 GeodesicLength=0.19026772894432786 rxn_smarts="[C:1](#[C:2][C@:3]12[C:4]([H:9])([H:10])[C@@:5]1([H:11])[O:6][C:7]2([H:12])[H:13])[H:8]>>[C:1]1([H:8])=[C:2]=[C:3]2[C:4]([H:9])([H:10])[C@@:5]1([H:11])[O:6][C:7]2([H:12])[H:13]"
C        1.57017557       0.38351972       0.38228140
C        1.72351588       0.27632318      -0.91342909
C        0.29561782       0.02827883      -0.73316454
C       -0.75937417       1.04878391      -0.37276603
C       -0.39205958       0.33265978       0.87958811
O       -0.87597107      -0.98403392       0.81522191
C       -0.34822133      -1.32760344      -0.47854834
H        2.08259626       0.25241763       1.31954120
H       -1.76443474       0.88174836      -0.75254063
H       -0.41006578       2.07107088      -0.44807905
H       -0.36024773       0.75982791       1.87293169
H        0.37766870      -2.13417290      -0.38727934
H       -1.13919983      -1.58881994      -1.18375729
13
Frame=3 idx=006511 GeodesicLength=0.2853599549237208 rxn_smarts="[C:1](#[C:2][C@:3]12[C:4]([H:9])([H:10])[C@@:5]1([H:11])[O:6][C:7]2([H:12])[H:13])[H:8]>>[C:1]1([H:8])=[C:2]=[C:3]2[C:4]([H:9])([H:10])[C@@:5]1([H:11])[O:6][C:7]2([H:12])[H:13]"
C        1.59049643       0.38928589       0.39577408
C        1.71044307       0.27212879      -0.89876567
C        0.28820910       0.02375225      -0.73789536
C       -0.76050473       1.04933382      -0.37523866
C       -0.38860772       0.32977577       0.87708369
O       -0.87970326      -0.98619202       0.81098593
C       -0.35439139      -1.33152524      -0.48345675
H        2.12177161       0.27178175       1.32392912
H       -1.76723818       0.88582377      -0.75225976
H       -0.40870066       2.07071529      -0.45090410
H       -0.37560492       0.75651591       1.87134822
H        0.37091207      -2.13891229      -0.39368882
H       -1.14708141      -1.59248369      -1.18691194
13
Frame=4 idx=006511 GeodesicLength=0.3804394912887798 rxn_smarts="[C:1](#[C:2][C@:3]12[C:4]([H:9])([H:10])[C@@:5]1([H:11])[O:6][C:7]2([H:12])[H:13])[H:8]>>[C:1]1([H:8])=[C:2]=[C:3]2[C:4]([H:9])([H:10])[C@@:5]1([H:11])[O:6][C:7]2([H:12])[H:13]"
C        1.61119886       0.39518017       0.40979485
C        1.69732908       0.26747487      -0.88270167
C        0.28055347       0.01910929      -0.74297301
C       -0.76166049       1.04981804      -0.37770749
C       -0.38510702       0.32668035       0.87449475
O       -0.88364084      -0.98844380       0.80657618
C       -0.36087044      -1.33552643      -0.48857420
H        2.16220413       0.29252324       1.32779321
H       -1.77010957       0.89001021      -0.75187537
H       -0.40722183       2.07024647      -0.45367301
H       -0.39113759       0.75285907       1.86940515
H        0.36378906      -2.14378240      -0.40032586
H       -1.15532683      -1.59614909      -1.19023353
13
Frame=5 idx=006511 GeodesicLength=0.4754867860134912 rxn_smarts="[C:1](#[C:2][C@:3]12[C:4]([H:9])([H:10])[C@@:5]1([H:11])[O:6][C:7]2([H:12])[H:13])[H:8]>>[C:1]1([H:8])=[C:2]=[C:3]2[C:4]([H:9])([H:10])[C@@:5]1([H:11])[O:6][C:7]2([H:12])[H:13]"
C        1.63230026       0.40119207       0.42438859
C        1.68414841       0.26231913      -0.86514484
C        0.27266652       0.01434446      -0.74838088
C       -0.76283113       1.05022905      -0.38016981
C       -0.38158779       0.32335594       0.87182662
O       -0.88782306      -0.99079848       0.80197507
C       -0.36767480      -1.33960586      -0.49391024
H        2.20395132       0.31476548       1.33102635
H       -1.77302897       0.89431482      -0.75140883
H       -0.40560982       2.06965075      -0.45636672
H       -0.40683965       0.74882702       1.86710781
H        0.35626821      -2.14879524      -0.40719240
H       -1.16393949      -1.59979914      -1.19375072
13
Frame=6 idx=006511 GeodesicLength=0.5705222724753521 rxn_smarts="[C:1](#[C:2][C@:3]12[C:4]([H:9])([H:10])[C@@:5]1([H:11])[O:6][C:7]2([H:12])[H:13])[H:8]>>[C:1]1([H:8])=[C:2]=[C:3]2[C:4]([H:9])([H:10])[C@@:5]1([H:11])[O:6][C:7]2([H:12])[H:13]"
C        1.65381966       0.40730303       0.43961360
C        1.67086170       0.25659650      -0.84596892
C        0.26457307       0.00943971      -0.75410179
C       -0.76398949       1.05055402      -0.38261731
C       -0.37807481       0.31976639       0.86909458
O       -0.89229966      -0.99327680       0.79715942
C       -0.37483410      -1.34377031      -0.49948526
H        2.24706589       0.33874143       1.33349460
H       -1.77596039       0.89875292      -0.75088182
H       -0.40382176       2.06891364      -0.45895416
H       -0.42269350       0.74437068       1.86446029
H        0.34829087      -2.15398183      -0.41430351
H       -1.17293748      -1.60340940      -1.19750972
13
Frame=7 idx=006511 GeodesicLength=0.66553279311348 rxn_smarts="[C:1](#[C:2][C@:3]12[C:4]([H:9])([H:10])[C@@:5]1([H:11])[O:6][C:7]2([H:12])[H:13])[H:8]>>[C:1]1([H:8])=[C:2]=[C:3]2[C:4]([H:9])([H:10])[C@@:5]1([H:11])[O:6][C:7]2([H:12])[H:13]"
C        1.67577646       0.41349416       0.45551888
C        1.65743149       0.25024988      -0.82505625
C        0.25630647       0.00438646      -0.76010223
C       -0.76511531       1.05077937      -0.38504297
C       -0.37461177       0.31588512       0.86631462
O       -0.89712597      -0.99589123       0.79210704
C       -0.38236779      -1.34801643      -0.50531110
H        2.29160244       0.36461816       1.33504138
H       -1.77886793       0.90333195      -0.75032555
H       -0.40182789       2.06801429      -0.46140381
H       -0.43869436       0.73945612       1.86147486
H        0.33981318      -2.15935858      -0.42166096
H       -1.18231901      -1.60694929      -1.20155391
13
Frame=8 idx=006511 GeodesicLength=0.7605173188293884 rxn_smarts="[C:1](#[C:2][C@:3]12[C:4]([H:9])([H:10])[C@@:5]1([H:11])[O:6][C:7]2([H:12])[H:13])[H:8]>>[C:1]1([H:8])=[C:2]=[C:3]2[C:4]([H:9])([H:10])[C@@:5]1([H:11])[O:6][C:7]2([H:12])[H:13]"
C        1.69818975       0.41971475       0.47216961
C        1.64382157       0.24318861      -0.80225693
C        0.24791293      -0.00083109      -0.76633669
C       -0.76617724       1.05088661      -0.38743317
C       -0.37125491       0.31167152       0.86351107
O       -0.90237702      -0.99865906       0.78678852
C       -0.39030202      -1.35233971      -0.51140521
H        2.33762102       0.39266428       1.33544757
H       -1.78170102       0.90806649      -0.74977802
H       -0.39958027       2.06692330      -0.46366673
H       -0.45484468       0.73403416       1.85817758
H        0.33077461      -2.16494877      -0.42927357
H       -1.19208271      -1.61037108      -1.20594404
13
Frame=9 idx=006511 GeodesicLength=0.8556228832383755 rxn_smarts="[C:1](#[C:2][C@:3]12[C:4]([H:9])([H:10])[C@@:5]1([H:11])[O:6][C:7]2([H:12])[H:13])[H:8]>>[C:1]1([H:8])=[C:2]=[C:3]2[C:4]([H:9])([H:10])[C@@:5]1([H:11])[O:6][C:7]2([H:12])[H:13]"
C        1.72108371       0.42579180       0.48973976
C        1.62991241       0.23521093      -0.77726714
C        0.23952449      -0.00629339      -0.77267899
C       -0.76703527       1.05085181      -0.38973773
C       -0.36809201       0.30699201       0.86076660
O       -0.90825074      -1.00166389       0.78112401
C       -0.39872333      -1.35677970      -0.51782176
H        2.38514473       0.42379047       1.33411884
H       -1.78428590       0.91304066      -0.74933943
H       -0.39685312       2.06561794      -0.46558866
H       -0.47114920       0.72792134       1.85470387
H        0.32098139      -2.17088504      -0.43715585
H       -1.20225717      -1.61359495      -1.21086353
13
Frame=10 idx=006511 GeodesicLength=0.9506884953651265 rxn_smarts="[C:1](#[C:2][C@:3]12[C:4]([H:9])([H:10])[C@@:5]1([H:11])[O:6][C:7]2([H:12])[H:13])[H:8]>>[C:1]1([H:8])=[C:2]=[C:3]2[C:4]([H:9])([H:10])[C@@:5]1([H:11])[O:6][C:7]2([H:12])[H:13]"
C        1.74447222       0.43170811       0.50821447
C        1.61572740       0.22631959      -0.75002832
C        0.23116981      -0.01196862      -0.77908577
C       -0.76771088       1.05066565      -0.39195563
C       -0.36518725       0.30186738       0.85809788
O       -0.91476312      -1.00488087       0.77511771
C       -0.40760262      -1.36129962      -0.52454209
H        2.43416638       0.45782793       1.33093936
H       -1.78662230       0.91822742      -0.74903556
H       -0.39369146       2.06407258      -0.46716231
H       -0.48764168       0.72116560       1.85103520
H        0.31046930      -2.17712000      -0.44528390
H       -1.21278580      -1.61658516      -1.21631103
13
Frame=11 idx=006511 GeodesicLength=1.04569252287815 rxn_smarts="[C:1](#[C:2][C@:3]12[C:4]([H:9])([H:10])[C@@:5]1([H:11])[O:6][C:7]2([H:12])[H:13])[H:8]>>[C:1]1([H:8])=[C:2]=[C:3]2[C:4]([H:9])([H:10])[C@@:5]1([H:11])[O:6][C:7]2([H:12])[H:13]"
C        1.76838245       0.43739986       0.52765369
C        1.60120814       0.21646349      -0.72036558
C        0.22295336      -0.01786890      -0.78544761
C       -0.76814316       1.05031315      -0.39405967
C       -0.36262506       0.29626322       0.85556781
O       -0.92200499      -1.00832304       0.76874457
C       -0.41693645      -1.36588795      -0.53156471
H        2.48456960       0.49495180       1.32547593
H       -1.78861212       0.92364109      -0.74894163
H       -0.39002034       2.06226649      -0.46830901
H       -0.50436023       0.71373596       1.84723595
H        0.29919894      -2.18367189      -0.45362399
H       -1.22361015      -1.61928328      -1.22236576
13
Frame=12 idx=006511 GeodesicLength=1.1406471927836397 rxn_smarts="[C:1](#[C:2][C@:3]12[C:4]([H:9])([H:10])[C@@:5]1([H:11])[O:6][C:7]2([H:12])[H:13])[H:8]>>[C:1]1([H:8])=[C:2]=[C:3]2[C:4]([H:9])([H:10])[C@@:5]1([H:11])[O:6][C:7]2([H:12])[H:13]"
C        1.79285217       0.44273768       0.54813399
C        1.58629185       0.20556932      -0.68808199
C        0.21499610      -0.02401521      -0.79163095
C       -0.76823439       1.04980068      -0.39600965
C       -0.36048340       0.29012566       0.85326771
O       -0.93008350      -1.01203908       0.76197124
C       -0.42673700      -1.37056671      -0.53890156
H        2.53613059       0.53552168       1.31720649
H       -1.79011387       0.92932902      -0.74915378
H       -0.38570947       2.06022759      -0.46891365
H       -0.52131975       0.70558107       1.84341547
H        0.28709298      -2.19062235      -0.46214806
H       -1.23468232      -1.62164934      -1.22915526
13
Frame=13 idx=006511 GeodesicLength=1.2353866078962548 rxn_smarts="[C:1](#[C:2][C@:3]12[C:4]([H:9])([H:10])[C@@:5]1([H:11])[O:6][C:7]2([H:12])[H:13])[H:8]>>[C:1]1([H:8])=[C:2]=[C:3]2[C:4]([H:9])([H:10])[C@@:5]1([H:11])[O:6][C:7]2([H:12])[H:13]"
C        1.81788967       0.44811639       0.56959394
C        1.57092247       0.19391637      -0.65307124
C        0.20744460      -0.03027867      -0.79747330
C       -0.76809927       1.04908314      -0.39782974
C       -0.35895924       0.28362851       0.85122328
O       -0.93895262      -1.01584075       0.75485598
C       -0.43674027      -1.37514668      -0.54639123
H        2.58855887       0.57786444       1.30549645
H       -1.79117147       0.93511135      -0.74976726
H       -0.38102394       2.05785072      -0.46903049
H       -0.53878590       0.69693493       1.83954145
H        0.27452435      -2.19763931      -0.47061296
H       -1.24560726      -1.62360044      -1.23653489
13
Frame=14 idx=006511 GeodesicLength=1.330004580329363 rxn_smarts="[C:1](#[C:2][C@:3]12[C:4]([H:9])([H:10])[C@@:5]1([H:11])[O:6][C:7]2([H:12])[H:13])[H:8]>>[C:1]1([H:8])=[C:2]=[C:3]2[C:4]([H:9])([H:10])[C@@:5]1([H:11])[O:6][C:7]2([H:12])[H:13]"
C        1.84357009       0.45321451       0.59206658
C        1.55501783       0.18133628      -0.61512993
C        0.20046279      -0.03672317      -0.80280344
C       -0.76754192       1.04819673      -0.39943990
C       -0.35809470       0.27665628       0.84958436
O       -0.94875789      -1.01985229       0.74734497
C       -0.44701082      -1.37971740      -0.55408969
H        2.64137292       0.62290992       1.28978534
H       -1.79154434       0.94112058      -0.75089147
H       -0.37567781       2.05523347      -0.46845353
H       -0.55670241       0.68767495       1.83580315
H        0.26130311      -2.20494562      -0.47903890
H       -1.25639685      -1.62510423      -1.24473754
13
Frame=15 idx=006511 GeodesicLength=1.4244542482029785 rxn_smarts="[C:1](#[C:2][C@:3]12[C:4]([H:9])([H:10])[C@@:5]1([H:11])[O:6][C:7]2([H:12])[H:13])[H:8]>>[C:1]1([H:8])=[C:2]=[C:3]2[C:4]([H:9])([H:10])[C@@:5]1([H:11])[O:6][C:7]2([H:12])[H:13]"
C        1.86997008       0.45815971       0.61538034
C        1.53851831       0.16797837      -0.57418362
C        0.19422256      -0.04327602      -0.80744567
C       -0.76655054       1.04714590      -0.40082208
C       -0.35800208       0.26927599       0.84843936
O       -0.95949585      -1.02402119       0.73946756
C       -0.45739055      -1.38420192      -0.56190810
H        2.69397112       0.66989533       1.26958914
H       -1.79116987       0.94730396      -0.75262670
H       -0.36971856       2.05238592      -0.46713714
H       -0.57516893       0.67789142       1.83227425
H        0.24761786      -2.21242911      -0.48727118
H       -1.26680355      -1.62610837      -1.25375615
13
Frame=16 idx=006511 GeodesicLength=1.518751822416922 rxn_smarts="[C:1](#[C:2][C@:3]12[C:4]([H:9])([H:10])[C@@:5]1([H:11])[O:6][C:7]2([H:12])[H:13])[H:8]>>[C:1]1([H:8])=[C:2]=[C:3]2[C:4]([H:9])([H:10])[C@@:5]1([H:11])[O:6][C:7]2([H:12])[H:13]"
C        1.89710282       0.46333859       0.63925558
C        1.52132150       0.15420016      -0.53019620
C        0.18887215      -0.04980120      -0.81122448
C       -0.76521749       1.04595178      -0.40200382
C       -0.35885226       0.26163749       0.84788519
O       -0.97113384      -1.02827818       0.73128719
C       -0.46765093      -1.38851604      -0.56972640
H        2.74607581       0.71734155       1.24458274
H       -1.79008822       0.95352524      -0.75514316
H       -0.36336368       2.04938843      -0.46511487
H       -0.59436875       0.66777248       1.82905203
H        0.23378915      -2.21991454      -0.49508269
H       -1.27648627      -1.62664578      -1.26357110
