12
Frame=0 idx=002117 GeodesicLength=0.0 rxn_smarts="[O:1]=[C:2]1[N:3]([H:7])[C:4]([H:8])([H:9])[C:5]([H:10])([H:11])[N:6]1[H:12]>>[O:1]=[C:2]1[N+:3]([H:7])([H:10])[C:4]([H:8])([H:9])[C-:5]([H:11])[N:6]1[H:12]"
O        2.41873311      -0.24123434      -0.52226197
C        1.24375028      -0.26236088      -0.24982414
N        0.48933122       0.90742413       0.25830650
C       -0.91080635       0.67496371      -0.20334711
C       -0.91611843      -0.68750626       0.45258876
N        0.31325712      -1.21390351      -0.17808048
H        0.96610686       1.79666805       0.16185384
H       -0.94571860       0.72070126      -1.30043851
H       -1.58197168       1.39582056       0.25813580
H        0.11291733       0.42372972       1.26108589
H       -1.77014056      -1.33270224       0.26351236
H        0.58065970      -2.18160021      -0.20153092
12
Frame=1 idx=002117 GeodesicLength=0.05896627722635043 rxn_smarts="[O:1]=[C:2]1[N:3]([H:7])[C:4]([H:8])([H:9])[C:5]([H:10])([H:11])[N:6]1[H:12]>>[O:1]=[C:2]1[N+:3]([H:7])([H:10])[C:4]([H:8])([H:9])[C-:5]([H:11])[N:6]1[H:12]"
O        2.41999529      -0.24197645      -0.52172607
C        1.24314313      -0.26015641      -0.25751044
N        0.49089158       0.90736231       0.25831480
C       -0.90936417       0.67636533      -0.20387614
C       -0.91363385      -0.68689242       0.45400150
N        0.31301880      -1.21374690      -0.18230323
H        0.96553696       1.79657957       0.15422236
H       -0.94965758       0.72373074      -1.30059966
H       -1.58074346       1.39664376       0.25841183
H        0.10547970       0.41016664       1.27269146
H       -1.76990349      -1.32771058       0.25972358
H        0.58523709      -2.18036558      -0.19134999
12
Frame=2 idx=002117 GeodesicLength=0.11792393464326972 rxn_smarts="[O:1]=[C:2]1[N:3]([H:7])[C:4]([H:8])([H:9])[C:5]([H:10])([H:11])[N:6]1[H:12]>>[O:1]=[C:2]1[N+:3]([H:7])([H:10])[C:4]([H:8])([H:9])[C-:5]([H:11])[N:6]1[H:12]"
O        2.42124197      -0.24275993      -0.52109533
C        1.24262205      -0.25797958      -0.26489785
N        0.49252405       0.90741113       0.25813683
C       -0.90787659       0.67775507      -0.20437293
C       -0.91115614      -0.68628433       0.45542753
N        0.31285547      -1.21359422      -0.18626147
H        0.96497947       1.79655208       0.14628338
H       -0.95360665       0.72663721      -1.30070784
H       -1.57945769       1.39747366       0.25870731
H        0.09780926       0.39647886       1.28445803
H       -1.76962327      -1.32273132       0.25601251
H        0.58968808      -2.17895863      -0.18169018
12
Frame=3 idx=002117 GeodesicLength=0.17685644804746953 rxn_smarts="[O:1]=[C:2]1[N:3]([H:7])[C:4]([H:8])([H:9])[C:5]([H:10])([H:11])[N:6]1[H:12]>>[O:1]=[C:2]1[N+:3]([H:7])([H:10])[C:4]([H:8])([H:9])[C-:5]([H:11])[N:6]1[H:12]"
O        2.42247604      -0.24357758      -0.52038528
C        1.24218874      -0.25583094      -0.27199437
N        0.49422840       0.90757627       0.25776656
C       -0.90634492       0.67913698      -0.20483816
C       -0.90868595      -0.68567903       0.45686234
N        0.31276478      -1.21344112      -0.18996909
H        0.96443886       1.79658664       0.13804852
H       -0.95756701       0.72942902      -1.30076316
H       -1.57811462       1.39831306       0.25902510
H        0.08989468       0.38265629       1.29639119
H       -1.76930035      -1.31776413       0.25237540
H        0.59402134      -2.17740545      -0.17251903
12
Frame=4 idx=002117 GeodesicLength=0.23573999249804906 rxn_smarts="[O:1]=[C:2]1[N:3]([H:7])[C:4]([H:8])([H:9])[C:5]([H:10])([H:11])[N:6]1[H:12]>>[O:1]=[C:2]1[N+:3]([H:7])([H:10])[C:4]([H:8])([H:9])[C-:5]([H:11])[N:6]1[H:12]"
O        2.42370165      -0.24442443      -0.51960684
C        1.24184400      -0.25371043      -0.27881111
N        0.49600430       0.90786306       0.25719851
C       -0.90477081       0.68051472      -0.20527280
C       -0.90622313      -0.68507367       0.45830252
N        0.31274445      -1.21328372      -0.19343939
H        0.96391923       1.79668497       0.12952930
H       -0.96154052       0.73211366      -1.30076614
H       -1.57671500       1.39916454       0.25936754
H        0.08172589       0.36868918       1.30849525
H       -1.76893457      -1.31280892       0.24881060
H        0.59824451      -2.17572894      -0.16380745
12
Frame=5 idx=002117 GeodesicLength=0.2945458910419189 rxn_smarts="[O:1]=[C:2]1[N:3]([H:7])[C:4]([H:8])([H:9])[C:5]([H:10])([H:11])[N:6]1[H:12]>>[O:1]=[C:2]1[N+:3]([H:7])([H:10])[C:4]([H:8])([H:9])[C-:5]([H:11])[N:6]1[H:12]"
O        2.42492308      -0.24529617      -0.51876984
C        1.24158765      -0.25161749      -0.28536222
N        0.49785154       0.90827570       0.25642792
C       -0.90315609       0.68189172      -0.20567824
C       -0.90376716      -0.68446537       0.45974512
N        0.31279210      -1.21311844      -0.19668573
H        0.96342491       1.79684825       0.12073861
H       -0.96552897       0.73469828      -1.30071764
H       -1.57525998       1.40003043       0.25973639
H        0.07329345       0.35456760       1.32077393
H       -1.76852572      -1.30786548       0.24531723
H        0.60236520      -2.17394902      -0.15552552
12
Frame=6 idx=002117 GeodesicLength=0.3532365221582284 rxn_smarts="[O:1]=[C:2]1[N:3]([H:7])[C:4]([H:8])([H:9])[C:5]([H:10])([H:11])[N:6]1[H:12]>>[O:1]=[C:2]1[N+:3]([H:7])([H:10])[C:4]([H:8])([H:9])[C-:5]([H:11])[N:6]1[H:12]"
O        2.42614341      -0.24618913      -0.51788625
C        1.24141945      -0.24955302      -0.29166211
N        0.49977042       0.90881880       0.25545268
C       -0.90150222       0.68327048      -0.20605646
C       -0.90131700      -0.68385045       0.46118860
N        0.31290583      -1.21294354      -0.19971992
H        0.96296056       1.79707967       0.11169277
H       -0.96953246       0.73718813      -1.30061953
H       -1.57375124       1.40091195       0.26013097
H        0.06458673       0.34028215       1.33322851
H       -1.76807342      -1.30293309       0.24189709
H        0.60638995      -2.17208195      -0.14764634
12
Frame=7 idx=002117 GeodesicLength=0.4123250089547183 rxn_smarts="[O:1]=[C:2]1[N:3]([H:7])[C:4]([H:8])([H:9])[C:5]([H:10])([H:11])[N:6]1[H:12]>>[O:1]=[C:2]1[N+:3]([H:7])([H:10])[C:4]([H:8])([H:9])[C-:5]([H:11])[N:6]1[H:12]"
O        2.42739311      -0.24711235      -0.51689763
C        1.24136252      -0.24750868      -0.29764283
N        0.50178417       0.90953196       0.25416078
C       -0.89980535       0.68466485      -0.20637073
C       -0.89887541      -0.68323698       0.46261129
N        0.31309495      -1.21274010      -0.20253066
H        0.96255240       1.79740138       0.10222799
H       -0.97360427       0.73959551      -1.30043238
H       -1.57216131       1.40182176       0.26062683
H        0.05551056       0.32573396       1.34593345
H       -1.76757450      -1.29801954       0.23849950
H        0.61032313      -2.17013176      -0.14018562
12
Frame=8 idx=002117 GeodesicLength=0.47104820682486953 rxn_smarts="[O:1]=[C:2]1[N:3]([H:7])[C:4]([H:8])([H:9])[C:5]([H:10])([H:11])[N:6]1[H:12]>>[O:1]=[C:2]1[N+:3]([H:7])([H:10])[C:4]([H:8])([H:9])[C-:5]([H:11])[N:6]1[H:12]"
O        2.42864112      -0.24804860      -0.51587308
C        1.24138242      -0.24549240      -0.30344695
N        0.50385621       0.91036919       0.25268607
C       -0.89807231       0.68606590      -0.20666862
C       -0.89643809      -0.68260961       0.46402935
N        0.31334362      -1.21252943      -0.20517654
H        0.96216224       1.79778265       0.09256015
H       -0.97768868       0.74193133      -1.30020077
H       -1.57051507       1.40274788       0.26114441
H        0.04618097       0.31101279       1.35880072
H       -1.76703465      -1.29311033       0.23517220
H        0.61418220      -2.16811936      -0.13302694
12
Frame=9 idx=002117 GeodesicLength=0.5301872849570737 rxn_smarts="[O:1]=[C:2]1[N:3]([H:7])[C:4]([H:8])([H:9])[C:5]([H:10])([H:11])[N:6]1[H:12]>>[O:1]=[C:2]1[N+:3]([H:7])([H:10])[C:4]([H:8])([H:9])[C-:5]([H:11])[N:6]1[H:12]"
O        2.42993283      -0.24901435      -0.51474654
C        1.24151299      -0.24349130      -0.30898890
N        0.50602551       0.91138246       0.25085887
C       -0.89629908       0.68749581      -0.20689404
C       -0.89401104      -0.68198352       0.46540709
N        0.31366837      -1.21228062      -0.20762892
H        0.96183807       1.79825917       0.08246289
H       -0.98186577       0.74421110      -1.29986573
H       -1.56877739       1.40371298       0.26179471
H        0.03644577       0.29596729       1.37194407
H       -1.76645012      -1.28821560       0.23182930
H        0.61797987      -2.16604343      -0.12617279
12
Frame=10 idx=002117 GeodesicLength=0.5891555594540774 rxn_smarts="[O:1]=[C:2]1[N:3]([H:7])[C:4]([H:8])([H:9])[C:5]([H:10])([H:11])[N:6]1[H:12]>>[O:1]=[C:2]1[N+:3]([H:7])([H:10])[C:4]([H:8])([H:9])[C-:5]([H:11])[N:6]1[H:12]"
O        2.43124824      -0.24999597      -0.51356001
C        1.24172755      -0.24151252      -0.31435229
N        0.50827693       0.91254502       0.24878961
C       -0.89449031       0.68894631      -0.20707669
C       -0.89158726      -0.68134575       0.46676160
N        0.31405535      -1.21201401      -0.20992008
H        0.96155880       1.79880822       0.07206538
H       -0.98609454       0.74644280      -1.29945810
H       -1.56697179       1.40470343       0.26252394
H        0.02637324       0.28066101       1.38528243
H       -1.76582227      -1.28332453       0.22851155
H        0.62172606      -2.16391401      -0.11956734
12
Frame=11 idx=002117 GeodesicLength=0.6480816322416981 rxn_smarts="[O:1]=[C:2]1[N:3]([H:7])[C:4]([H:8])([H:9])[C:5]([H:10])([H:11])[N:6]1[H:12]>>[O:1]=[C:2]1[N+:3]([H:7])([H:10])[C:4]([H:8])([H:9])[C-:5]([H:11])[N:6]1[H:12]"
O        2.43259818      -0.25099966      -0.51228130
C        1.24203322      -0.23954735      -0.31954014
N        0.51060956       0.91386884       0.24644000
C       -0.89264742       0.69042768      -0.20720720
C       -0.88916748      -0.68069981       0.46808140
N        0.31450840      -1.21171859      -0.21206212
H        0.96132061       1.79943310       0.06130415
H       -0.99039659       0.74864126      -1.29896496
H       -1.56508592       1.40573318       0.26336035
H        0.01594924       0.26503369       1.39885528
H       -1.76515119      -1.27843791       0.22519438
H        0.62542939      -2.16173444      -0.11317983
12
Frame=12 idx=002117 GeodesicLength=0.7068983151048239 rxn_smarts="[O:1]=[C:2]1[N:3]([H:7])[C:4]([H:8])([H:9])[C:5]([H:10])([H:11])[N:6]1[H:12]>>[O:1]=[C:2]1[N+:3]([H:7])([H:10])[C:4]([H:8])([H:9])[C-:5]([H:11])[N:6]1[H:12]"
O        2.43399011      -0.25202496      -0.51089935
C        1.24242449      -0.23760328      -0.32458613
N        0.51303332       0.91535681       0.24381095
C       -0.89076792       0.69193961      -0.20727647
C       -0.88675004      -0.68003997       0.46936125
N        0.31502694      -1.21139892      -0.21406855
H        0.96112617       1.80013658       0.05016217
H       -0.99477773       0.75081979      -1.29837240
H       -1.56311130       1.40679259       0.26432805
H        0.00513560       0.24906515       1.41263946
H       -1.76443454      -1.27354580       0.22186817
H        0.62910490      -2.15949758      -0.10696715
12
Frame=13 idx=002117 GeodesicLength=0.7657874210705123 rxn_smarts="[O:1]=[C:2]1[N:3]([H:7])[C:4]([H:8])([H:9])[C:5]([H:10])([H:11])[N:6]1[H:12]>>[O:1]=[C:2]1[N+:3]([H:7])([H:10])[C:4]([H:8])([H:9])[C-:5]([H:11])[N:6]1[H:12]"
O        2.43543087      -0.25306676      -0.50941620
C        1.24291706      -0.23566416      -0.32944610
N        0.51555597       0.91701947       0.24085083
C       -0.88884828       0.69349191      -0.20727500
C       -0.88433383      -0.67937056       0.47059845
N        0.31561722      -1.21103581      -0.21592065
H        0.96098626       1.80091331       0.03857052
H       -0.99925186       0.75298070      -1.29766819
H       -1.56103591       1.40790110       0.26543943
H       -0.00611845       0.23270051       1.42669767
H       -1.76366751      -1.26865839       0.21851800
H        0.63274847      -2.15721132      -0.10094877
12
Frame=14 idx=002117 GeodesicLength=0.824635975440775 rxn_smarts="[O:1]=[C:2]1[N:3]([H:7])[C:4]([H:8])([H:9])[C:5]([H:10])([H:11])[N:6]1[H:12]>>[O:1]=[C:2]1[N+:3]([H:7])([H:10])[C:4]([H:8])([H:9])[C-:5]([H:11])[N:6]1[H:12]"
O        2.43692371      -0.25412530      -0.50782587
C        1.24350557      -0.23373943      -0.33416561
N        0.51817539       0.91886369       0.23757148
C       -0.88688944       0.69508809      -0.20720241
C       -0.88191826      -0.67868621       0.47179068
N        0.31627999      -1.21064033      -0.21763631
H        0.96089313       1.80177387       0.02653458
H       -1.00382194       0.75513576      -1.29685052
H       -1.55885480       1.40906072       0.26670363
H       -0.01781728       0.21591391       1.44101485
H       -1.76285280      -1.26376599       0.21513801
H        0.63637674      -2.15487877      -0.09507251
12
Frame=15 idx=002117 GeodesicLength=0.8834665793118733 rxn_smarts="[O:1]=[C:2]1[N:3]([H:7])[C:4]([H:8])([H:9])[C:5]([H:10])([H:11])[N:6]1[H:12]>>[O:1]=[C:2]1[N+:3]([H:7])([H:10])[C:4]([H:8])([H:9])[C-:5]([H:11])[N:6]1[H:12]"
O        2.43847627      -0.25519968      -0.50611287
C        1.24419236      -0.23182383      -0.33875190
N        0.52090048       0.92089599       0.23395231
C       -0.88488899       0.69673507      -0.20704832
C       -0.87950139      -0.67798517       0.47292932
N        0.31701788      -1.21020592      -0.21921999
H        0.96084979       1.80271287       0.01400030
H       -1.00850292       0.75730057      -1.29590335
H       -1.55655665       1.41027413       0.26814900
H       -0.03000003       0.19865303       1.45559874
H       -1.76198704      -1.25886444       0.21170905
H        0.64000025      -2.15249262      -0.08930228
12
Frame=16 idx=002117 GeodesicLength=0.9422903836707697 rxn_smarts="[O:1]=[C:2]1[N:3]([H:7])[C:4]([H:8])([H:9])[C:5]([H:10])([H:11])[N:6]1[H:12]>>[O:1]=[C:2]1[N+:3]([H:7])([H:10])[C:4]([H:8])([H:9])[C-:5]([H:11])[N:6]1[H:12]"
O        2.44009697      -0.25629359      -0.50424563
C        1.24497939      -0.22991303      -0.34322542
N        0.52373621       0.92312255       0.22996787
C       -0.88284521       0.69843980      -0.20680577
C       -0.87707929      -0.67726616       0.47400936
N        0.31783449      -1.20972808      -0.22067931
H        0.96085329       1.80372883       0.00092313
H       -1.01331345       0.75948753      -1.29481433
H       -1.55412644       1.41154751       0.26980114
H       -0.04269849       0.18087112       1.47046049
H       -1.76106742      -1.25394900       0.20822048
H        0.64362996      -2.15004749      -0.08361202
