16
Frame=0 idx=006485 GeodesicLength=0.0 rxn_smarts="[C:1]([C@@:2]([C:3]([O:4][H:14])([H:12])[H:13])([N:5]([C:6](=[O:7])[H:16])[H:15])[H:11])([H:8])([H:9])[H:10]>>[C:1]([C@@:2]([C:3][H:12])([N:5]([C:6](=[O:7])[H:16])[H:15])[H:11])([H:8])([H:9])[H:10].[O:4]([H:13])[H:14]"
C       -1.13727759       1.56080670      -0.26391911
C       -0.30406973       0.36979998       0.19795411
C       -1.07193368      -0.88046888      -0.10567718
O       -0.42129876      -2.12593248       0.84409208
N        1.00535476       0.44551707      -0.46809970
C        2.05390422      -0.31359037      -0.15115283
O        2.05898577      -1.19371091       0.70090592
H       -0.59734417       2.49663272      -0.11277521
H       -2.06803641       1.60993004       0.29911334
H       -1.38883487       1.46261414      -1.32273967
H       -0.10523497       0.46754126       1.27434840
H       -2.05765366      -0.82346878       0.35508676
H       -0.56724445      -2.19259120      -0.21417855
H        0.53346862      -1.87546983       0.94360509
H        1.10617432       1.07199280      -1.24809422
H        2.96104059      -0.07960233      -0.72846919
16
Frame=1 idx=006485 GeodesicLength=0.052407475670641586 rxn_smarts="[C:1]([C@@:2]([C:3]([O:4][H:14])([H:12])[H:13])([N:5]([C:6](=[O:7])[H:16])[H:15])[H:11])([H:8])([H:9])[H:10]>>[C:1]([C@@:2]([C:3][H:12])([N:5]([C:6](=[O:7])[H:16])[H:15])[H:11])([H:8])([H:9])[H:10].[O:4]([H:13])[H:14]"
C       -1.13759804       1.55870863      -0.26528451
C       -0.30309074       0.37051844       0.20072222
C       -1.06962635      -0.88301035      -0.09670365
O       -0.42353602      -2.11969456       0.84335991
N        1.00588219       0.44528670      -0.46673924
C        2.05447361      -0.31446697      -0.15166129
O        2.05865178      -1.19919371       0.69573177
H       -0.59805770       2.49580242      -0.12006619
H       -2.06707025       1.61086835       0.29961041
H       -1.39135859       1.45513290      -1.32309443
H       -0.10473719       0.47106674       1.27692069
H       -2.05782772      -0.82198077       0.35847503
H       -0.56951784      -2.19509401      -0.22721962
H        0.53250825      -1.87352957       0.94484977
H        1.10865735       1.07704113      -1.24219809
H        2.96224725      -0.07745537      -0.72670279
16
Frame=2 idx=006485 GeodesicLength=0.10481218745973699 rxn_smarts="[C:1]([C@@:2]([C:3]([O:4][H:14])([H:12])[H:13])([N:5]([C:6](=[O:7])[H:16])[H:15])[H:11])([H:8])([H:9])[H:10]>>[C:1]([C@@:2]([C:3][H:12])([N:5]([C:6](=[O:7])[H:16])[H:15])[H:11])([H:8])([H:9])[H:10].[O:4]([H:13])[H:14]"
C       -1.13793970       1.55658289      -0.26664667
C       -0.30212173       0.37123913       0.20349519
C       -1.06724267      -0.88554723      -0.08782960
O       -0.42565646      -2.11347829       0.84281423
N        1.00643728       0.44513489      -0.46529274
C        2.05506669      -0.31525691      -0.15206389
O        2.05831958      -1.20459082       0.69060968
H       -0.59885882       2.49492791      -0.12725334
H       -2.06618011       1.61171755       0.30000161
H       -1.39379151       1.44767334      -1.32344442
H       -0.10432571       0.47457808       1.27950512
H       -2.05791948      -0.82059057       0.36168172
H       -0.57190065      -2.19730830      -0.24030485
H        0.53162943      -1.87153292       0.94618726
H        1.11120935       1.08221423      -1.23610614
H        2.96327453      -0.07576298      -0.72535317
16
Frame=3 idx=006485 GeodesicLength=0.15721575365869025 rxn_smarts="[C:1]([C@@:2]([C:3]([O:4][H:14])([H:12])[H:13])([N:5]([C:6](=[O:7])[H:16])[H:15])[H:11])([H:8])([H:9])[H:10]>>[C:1]([C@@:2]([C:3][H:12])([N:5]([C:6](=[O:7])[H:16])[H:15])[H:11])([H:8])([H:9])[H:10].[O:4]([H:13])[H:14]"
C       -1.13830926       1.55442800      -0.26801046
C       -0.30116475       0.37196821       0.20628269
C       -1.06477250      -0.88808048      -0.07905668
O       -0.42765481      -2.10728252       0.84245500
N        1.00702624       0.44507812      -0.46373381
C        2.05569268      -0.31593606      -0.15232120
O        2.05799265      -1.20988834       0.68556826
H       -0.59976487       2.49401636      -0.13434296
H       -2.06537830       1.61246925       0.30027623
H       -1.39612569       1.44022667      -1.32379971
H       -0.10401763       0.47808242       1.28211495
H       -2.05792432      -0.81930672       0.36469373
H       -0.57436682      -2.19922656      -0.25345922
H        0.53083654      -1.86947382       0.94763052
H        1.11385465       1.08755946      -1.22976000
H        2.96407619      -0.07463401      -0.72453734
16
Frame=4 idx=006485 GeodesicLength=0.20962145978436258 rxn_smarts="[C:1]([C@@:2]([C:3]([O:4][H:14])([H:12])[H:13])([N:5]([C:6](=[O:7])[H:16])[H:15])[H:11])([H:8])([H:9])[H:10]>>[C:1]([C@@:2]([C:3][H:12])([N:5]([C:6](=[O:7])[H:16])[H:15])[H:11])([H:8])([H:9])[H:10].[O:4]([H:13])[H:14]"
C       -1.13868378       1.55223636      -0.26938262
C       -0.30021090       0.37268043       0.20905740
C       -1.06226955      -0.89061511      -0.07033699
O       -0.42957291      -2.10111119       0.84231621
N        1.00761980       0.44503057      -0.46217120
C        2.05631434      -0.31662304      -0.15259668
O        2.05765480      -1.21519569       0.68045218
H       -0.60071214       2.49304640      -0.14140060
H       -2.06460772       1.61316152       0.30048038
H       -1.39840517       1.43276631      -1.32414959
H       -0.10373397       0.48157308       1.28470777
H       -2.05786591      -0.81808918       0.36761906
H       -0.57702982      -2.20087087      -0.26665911
H        0.53010651      -1.86739392       0.94914157
H        1.11655371       1.09299445      -1.22326295
H        2.96484272      -0.07359012      -0.72381484
16
Frame=5 idx=006485 GeodesicLength=0.2620346292379079 rxn_smarts="[C:1]([C@@:2]([C:3]([O:4][H:14])([H:12])[H:13])([N:5]([C:6](=[O:7])[H:16])[H:15])[H:11])([H:8])([H:9])[H:10]>>[C:1]([C@@:2]([C:3][H:12])([N:5]([C:6](=[O:7])[H:16])[H:15])[H:11])([H:8])([H:9])[H:10].[O:4]([H:13])[H:14]"
C       -1.13906681       1.55000392      -0.27076965
C       -0.29926130       0.37337871       0.21182619
C       -1.05973105      -0.89315130      -0.06166447
O       -0.43140827      -2.09496304       0.84239867
N        1.00822034       0.44499911      -0.46059091
C        2.05693520      -0.31730857      -0.15287553
O        2.05730736      -1.22051112       0.67526707
H       -0.60171014       2.49201914      -0.14843809
H       -2.06387485       1.61379259       0.30060354
H       -1.40062522       1.42527716      -1.32450228
H       -0.10348162       0.48505538       1.28729118
H       -2.05774046      -0.81694016       0.37046803
H       -0.57988296      -2.20223147      -0.27992741
H        0.52944330      -1.86529224       0.95072185
H        1.11932316       1.09855094      -1.21657370
H        2.96555332      -0.07267907      -0.72323449
16
Frame=6 idx=006485 GeodesicLength=0.3144597835402608 rxn_smarts="[C:1]([C@@:2]([C:3]([O:4][H:14])([H:12])[H:13])([N:5]([C:6](=[O:7])[H:16])[H:15])[H:11])([H:8])([H:9])[H:10]>>[C:1]([C@@:2]([C:3][H:12])([N:5]([C:6](=[O:7])[H:16])[H:15])[H:11])([H:8])([H:9])[H:10].[O:4]([H:13])[H:14]"
C       -1.13946891       1.54772866      -0.27217690
C       -0.29831910       0.37407271       0.21460251
C       -1.05713695      -0.89569035      -0.05304742
O       -0.43314692      -2.08883145       0.84270251
N        1.00883960       0.44501396      -0.45894946
C        2.05757142      -0.31795063      -0.15309583
O        2.05695794      -1.22580615       0.67005905
H       -0.60278669       2.49094246      -0.15545074
H       -2.06320512       1.61434620       0.30061871
H       -1.40277140       1.41775220      -1.32486935
H       -0.10329024       0.48853706       1.28988352
H       -2.05753809      -0.81587344       0.37321008
H       -0.58289140      -2.20329709      -0.29328962
H        0.52885773      -1.86315628       0.95239053
H        1.12219725       1.10430174      -1.20960186
H        2.96613089      -0.07208960      -0.72298575
16
Frame=7 idx=006485 GeodesicLength=0.3668704490526856 rxn_smarts="[C:1]([C@@:2]([C:3]([O:4][H:14])([H:12])[H:13])([N:5]([C:6](=[O:7])[H:16])[H:15])[H:11])([H:8])([H:9])[H:10]>>[C:1]([C@@:2]([C:3][H:12])([N:5]([C:6](=[O:7])[H:16])[H:15])[H:11])([H:8])([H:9])[H:10].[O:4]([H:13])[H:14]"
C       -1.13987075       1.54540302      -0.27361108
C       -0.29737544       0.37474403       0.21736448
C       -1.05452852      -0.89823235      -0.04444688
O       -0.43482284      -2.08272807       0.84324746
N        1.00945357       0.44500818      -0.45733766
C        2.05819152      -0.31863983      -0.15338778
O        2.05658943      -1.23116802       0.66469892
H       -0.60389465       2.48979609      -0.16250035
H       -2.06254900       1.61485501       0.30056440
H       -1.40488147       1.41016040      -1.32524077
H       -0.10309554       0.49201287       1.29245124
H       -2.05727558      -0.81485669       0.37594239
H       -0.58614439      -2.20407130      -0.30673147
H        0.52833131      -1.86101584       0.95411559
H        1.12514689       1.11017459      -1.20241999
H        2.96672546      -0.07144207      -0.72270852
16
Frame=8 idx=006485 GeodesicLength=0.41931123436099027 rxn_smarts="[C:1]([C@@:2]([C:3]([O:4][H:14])([H:12])[H:13])([N:5]([C:6](=[O:7])[H:16])[H:15])[H:11])([H:8])([H:9])[H:10]>>[C:1]([C@@:2]([C:3][H:12])([N:5]([C:6](=[O:7])[H:16])[H:15])[H:11])([H:8])([H:9])[H:10].[O:4]([H:13])[H:14]"
C       -1.14025278       1.54302257      -0.27506727
C       -0.29642214       0.37536785       0.22008395
C       -1.05194811      -0.90078305      -0.03582457
O       -0.43646239      -2.07663982       0.84406130
N        1.01003430       0.44490158      -0.45585654
C        2.05876059      -0.31947989      -0.15389595
O        2.05618347      -1.23667531       0.65906347
H       -0.60496672       2.48855576      -0.16962916
H       -2.06184528       1.61536030       0.30050602
H       -1.40700755       1.40249271      -1.32559032
H       -0.10282468       0.49547431       1.29495066
H       -2.05697105      -0.81385347       0.37874624
H       -0.58975324      -2.20457033      -0.32024598
H        0.52785029      -1.85890571       0.95584645
H        1.12809861       1.11602627      -1.19520528
H        2.96752669      -0.07029376      -0.72194302
16
Frame=9 idx=006485 GeodesicLength=0.47175487749282136 rxn_smarts="[C:1]([C@@:2]([C:3]([O:4][H:14])([H:12])[H:13])([N:5]([C:6](=[O:7])[H:16])[H:15])[H:11])([H:8])([H:9])[H:10]>>[C:1]([C@@:2]([C:3][H:12])([N:5]([C:6](=[O:7])[H:16])[H:15])[H:11])([H:8])([H:9])[H:10].[O:4]([H:13])[H:14]"
C       -1.14061827       1.54058599      -0.27655276
C       -0.29545671       0.37594580       0.22276140
C       -1.04939880      -0.90334393      -0.02717319
O       -0.43807000      -2.07058328       0.84514299
N        1.01058521       0.44469937      -0.45450843
C        2.05928248      -0.32046943      -0.15462239
O        2.05574153      -1.24234554       0.65313545
H       -0.60600764       2.48722449      -0.17686449
H       -2.06109196       1.61586570       0.30044416
H       -1.40916389       1.39473582      -1.32592366
H       -0.10247021       0.49892486       1.29738381
H       -2.05662546      -0.81286661       0.38164437
H       -0.59372727      -2.20477954      -0.33385146
H        0.52741441      -1.85682745       0.95759515
H        1.13106488       1.12187467      -1.18793302
H        2.96854170      -0.06864091      -0.72067793
16
Frame=10 idx=006485 GeodesicLength=0.5241927306531521 rxn_smarts="[C:1]([C@@:2]([C:3]([O:4][H:14])([H:12])[H:13])([N:5]([C:6](=[O:7])[H:16])[H:15])[H:11])([H:8])([H:9])[H:10]>>[C:1]([C@@:2]([C:3][H:12])([N:5]([C:6](=[O:7])[H:16])[H:15])[H:11])([H:8])([H:9])[H:10].[O:4]([H:13])[H:14]"
C       -1.14095499       1.53808237      -0.27807752
C       -0.29446961       0.37645931       0.22537101
C       -1.04691759      -0.90591671      -0.01845112
O       -0.43966786      -2.06455825       0.84651911
N        1.01108116       0.44433338      -0.45338817
C        2.05972457      -0.32169956      -0.15570390
O        2.05524300      -1.24827471       0.64676669
H       -0.60698271       2.48578084      -0.18426847
H       -2.06024603       1.61639704       0.30041239
H       -1.41139229       1.38685707      -1.32623218
H       -0.10196295       0.50236449       1.29971078
H       -2.05624966      -0.81185962       0.38473768
H       -0.59816982      -2.20470568      -0.34752648
H        0.52701154      -1.85481148       0.95932414
H        1.13403160       1.12767979      -1.18066194
H        2.96992164      -0.06612830      -0.71853200
16
Frame=11 idx=006485 GeodesicLength=0.5766654844242459 rxn_smarts="[C:1]([C@@:2]([C:3]([O:4][H:14])([H:12])[H:13])([N:5]([C:6](=[O:7])[H:16])[H:15])[H:11])([H:8])([H:9])[H:10]>>[C:1]([C@@:2]([C:3][H:12])([N:5]([C:6](=[O:7])[H:16])[H:15])[H:11])([H:8])([H:9])[H:10].[O:4]([H:13])[H:14]"
C       -1.14127255       1.53550717      -0.27964827
C       -0.29346202       0.37691646       0.22792090
C       -1.04448715      -0.90850010      -0.00966565
O       -0.44124385      -2.05854865       0.84819331
N        1.01153109       0.44382935      -0.45246543
C        2.06009642      -0.32313872      -0.15710060
O        2.05468663      -1.25445011       0.63997382
H       -0.60792195       2.48422874      -0.19183695
H       -2.05932863       1.61693523       0.30038217
H       -1.41367974       1.37884875      -1.32652525
H       -0.10132271       0.50580242       1.30194197
H       -2.05583013      -0.81084495       0.38802036
H       -0.60304030      -2.20434209      -0.36130710
H        0.52664703      -1.85283296       0.96106007
H        1.13703129       1.13351138      -1.17330417
H        2.97159659      -0.06292192      -0.71563918
16
Frame=12 idx=006485 GeodesicLength=0.6291493752130485 rxn_smarts="[C:1]([C@@:2]([C:3]([O:4][H:14])([H:12])[H:13])([N:5]([C:6](=[O:7])[H:16])[H:15])[H:11])([H:8])([H:9])[H:10]>>[C:1]([C@@:2]([C:3][H:12])([N:5]([C:6](=[O:7])[H:16])[H:15])[H:11])([H:8])([H:9])[H:10].[O:4]([H:13])[H:14]"
C       -1.14158397       1.53286215      -0.28125994
C       -0.29243829       0.37733169       0.23043122
C       -1.04206506      -0.91109808      -0.00084140
O       -0.44277042      -2.05254648       0.85016789
N        1.01195546       0.44324417      -0.45166827
C        2.06042417      -0.32471098      -0.15871174
O        2.05408435      -1.26080056       0.63284908
H       -0.60886514       2.48257891      -0.19952199
H       -2.05838104       1.61744805       0.30031973
H       -1.41599046       1.37072578      -1.32681181
H       -0.10059859       0.50924604       1.30410671
H       -2.05535412      -0.80985114       0.39140247
H       -0.60829150      -2.20364668      -0.37521277
H        0.52634686      -1.85087241       0.96282488
H        1.14008549       1.13940712      -1.16579605
H        2.97344225      -0.05931758      -0.71227802
16
Frame=13 idx=006485 GeodesicLength=0.6816448976896483 rxn_smarts="[C:1]([C@@:2]([C:3]([O:4][H:14])([H:12])[H:13])([N:5]([C:6](=[O:7])[H:16])[H:15])[H:11])([H:8])([H:9])[H:10]>>[C:1]([C@@:2]([C:3][H:12])([N:5]([C:6](=[O:7])[H:16])[H:15])[H:11])([H:8])([H:9])[H:10].[O:4]([H:13])[H:14]"
C       -1.14189529       1.53014958      -0.28290821
C       -0.29140151       0.37771296       0.23291263
C       -1.03962874      -0.91371247       0.00800583
O       -0.44423264      -2.04654022       0.85244509
N        1.01236543       0.44261004      -0.45095633
C        2.06072144      -0.32637320      -0.16047877
O        2.05343966      -1.26728494       0.62544572
H       -0.60983149       2.48083764      -0.20729274
H       -2.05742451       1.61791765       0.30020705
H       -1.41830380       1.36250058      -1.32709488
H       -0.09981930       0.51269859       1.30622033
H       -2.05481221      -0.80889532       0.39484165
H       -0.61388509      -2.20259832      -0.38926996
H        0.52612339      -1.84891406       0.96463417
H        1.14319626       1.14537086      -1.15811462
H        2.97538837      -0.05547936      -0.70859696
16
Frame=14 idx=006485 GeodesicLength=0.7341494747106355 rxn_smarts="[C:1]([C@@:2]([C:3]([O:4][H:14])([H:12])[H:13])([N:5]([C:6](=[O:7])[H:16])[H:15])[H:11])([H:8])([H:9])[H:10]>>[C:1]([C@@:2]([C:3][H:12])([N:5]([C:6](=[O:7])[H:16])[H:15])[H:11])([H:8])([H:9])[H:10].[O:4]([H:13])[H:14]"
C       -1.14221178       1.52737176      -0.28458870
C       -0.29035508       0.37806743       0.23537579
C       -1.03715753      -0.91634546       0.01686134
O       -0.44561643      -2.04051969       0.85502747
N        1.01277167       0.44195703      -0.45029023
C        2.06100124      -0.32808489      -0.16234430
O        2.05275601      -1.27386421       0.61781628
H       -0.61083747       2.47901084      -0.21512024
H       -2.05647890       1.61832776       0.30002819
H       -1.42060018       1.35418486      -1.32737743
H       -0.09901307       0.51616270       1.30829824
H       -2.05419607      -0.80799370       0.39829725
H       -0.61978622      -2.20117431      -0.40350484
H        0.52598805      -1.84694451       0.96650205
H        1.14636344       1.15140127      -1.15024267
H        2.97737231      -0.05155689      -0.70473821
16
Frame=15 idx=006485 GeodesicLength=0.786660483553804 rxn_smarts="[C:1]([C@@:2]([C:3]([O:4][H:14])([H:12])[H:13])([N:5]([C:6](=[O:7])[H:16])[H:15])[H:11])([H:8])([H:9])[H:10]>>[C:1]([C@@:2]([C:3][H:12])([N:5]([C:6](=[O:7])[H:16])[H:15])[H:11])([H:8])([H:9])[H:10].[O:4]([H:13])[H:14]"
C       -1.14253448       1.52452989      -0.28629764
C       -0.28930022       0.37839709       0.23782488
C       -1.03464148      -0.91899997       0.02571953
O       -0.44691498      -2.03447673       0.85792261
N        1.01317863       0.44129728      -0.44965443
C        2.06126875      -0.32982963      -0.16428503
O        2.05203325      -1.28052106       0.60998162
H       -0.61188663       2.47709989      -0.22298855
H       -2.05555127       1.61867090       0.29977916
H       -1.42287153       1.34578590      -1.32765871
H       -0.09819071       0.51963891       1.31034626
H       -2.05350156      -0.80715389       0.40175155
H       -0.62598600      -2.19935437      -0.41793703
H        0.52594810      -1.84495982       0.96843230
H        1.14957622       1.15747497      -1.14219380
H        2.97937394      -0.04759934      -0.70074270
16
Frame=16 idx=006485 GeodesicLength=0.8391757912927233 rxn_smarts="[C:1]([C@@:2]([C:3]([O:4][H:14])([H:12])[H:13])([N:5]([C:6](=[O:7])[H:16])[H:15])[H:11])([H:8])([H:9])[H:10]>>[C:1]([C@@:2]([C:3][H:12])([N:5]([C:6](=[O:7])[H:16])[H:15])[H:11])([H:8])([H:9])[H:10].[O:4]([H:13])[H:14]"
C       -1.14286262       1.52162463      -0.28803134
C       -0.28823709       0.37870152       0.24026116
C       -1.03207501      -0.92167949       0.03457862
O       -0.44812448      -2.02840379       0.86114068
N        1.01358810       0.44063496      -0.44904390
C        2.06152581      -0.33160150      -0.16629273
O        2.05126974      -1.28724745       0.60194890
H       -0.61297679       2.47510407      -0.23088720
H       -2.05464291       1.61894327       0.29946161
H       -1.42511522       1.33730905      -1.32793604
H       -0.09735524       0.52312669       1.31236591
H       -2.05272608      -0.80637992       0.40519657
H       -0.63248747      -2.19711817      -0.43258371
H        0.52600919      -1.84296039       0.97042390
H        1.15281858       1.16355848      -1.13399755
H        2.98139150      -0.04361195      -0.69660486
