11
Frame=0 idx=000873 GeodesicLength=0.0 rxn_smarts="[N:1]#[C:2][C@@:3]1([H:7])[C:4]([H:8])([H:9])[C:5]([H:10])([H:11])[O:6]1>>[N:1]#[C:2][C@@:3]([C:4](=[C:5]([H:10])[H:11])[H:9])([O:6][H:8])[H:7]"
N        2.56955047      -0.98032094       0.48549029
C        1.68200387      -0.28504806       0.27011656
C        0.60851780       0.63073648      -0.16073241
C       -0.55611034       0.13045617      -0.98214166
C       -1.00748764      -0.56892889       0.27429190
O       -0.41399141       0.68682067       0.97848970
H        1.04216091       1.61177664      -0.35191596
H       -1.00831966       1.21385071       0.22492717
H       -0.43847400      -0.36474856      -1.94000966
H       -2.06441984      -0.68481006       0.50669426
H       -0.41343021      -1.38978419       0.69478984
11
Frame=1 idx=000873 GeodesicLength=0.09500247910235168 rxn_smarts="[N:1]#[C:2][C@@:3]1([H:7])[C:4]([H:8])([H:9])[C:5]([H:10])([H:11])[O:6]1>>[N:1]#[C:2][C@@:3]([C:4](=[C:5]([H:10])[H:11])[H:9])([O:6][H:8])[H:7]"
N        2.57884164      -0.98018185       0.46419894
C        1.69000824      -0.28142589       0.26691619
C        0.61048703       0.63123299      -0.15118073
C       -0.55634262       0.12920290      -0.97185850
C       -1.01610671      -0.57563350       0.27260797
O       -0.40466755       0.69423299       0.98474784
H        1.04080481       1.61187754      -0.35304531
H       -1.01336719       1.22491519       0.21661444
H       -0.42434122      -0.36892851      -1.92633619
H       -2.07597940      -0.69168200       0.49074818
H       -0.42933702      -1.39360986       0.70658717
11
Frame=2 idx=000873 GeodesicLength=0.18998681223179975 rxn_smarts="[N:1]#[C:2][C@@:3]1([H:7])[C:4]([H:8])([H:9])[C:5]([H:10])([H:11])[O:6]1>>[N:1]#[C:2][C@@:3]([C:4](=[C:5]([H:10])[H:11])[H:9])([O:6][H:8])[H:7]"
N        2.58803123      -0.97983847       0.44282891
C        1.69818834      -0.27774359       0.26357748
C        0.61256757       0.63164273      -0.14148841
C       -0.55651970       0.12786914      -0.96133119
C       -1.02478881      -0.58251911       0.27089283
O       -0.39503209       0.70170556       0.99129438
H        1.03942438       1.61180350      -0.35421106
H       -1.01820897       1.23619206       0.20785933
H       -0.41057900      -0.37279423      -1.91245659
H       -2.08747876      -0.69903988       0.47422869
H       -0.44560420      -1.39727771       0.71880562
11
Frame=3 idx=000873 GeodesicLength=0.28491720542438337 rxn_smarts="[N:1]#[C:2][C@@:3]1([H:7])[C:4]([H:8])([H:9])[C:5]([H:10])([H:11])[O:6]1>>[N:1]#[C:2][C@@:3]([C:4](=[C:5]([H:10])[H:11])[H:9])([O:6][H:8])[H:7]"
N        2.59708450      -0.97930493       0.42147732
C        1.70654902      -0.27399648       0.26004050
C        0.61476132       0.63197112      -0.13167144
C       -0.55666108       0.12646891      -0.95054931
C       -1.03352379      -0.58959695       0.26914142
O       -0.38505231       0.70923164       0.99813908
H        1.03801213       1.61156016      -0.35541478
H       -1.02283088       1.24768443       0.19865188
H       -0.39722845      -0.37632500      -1.89839190
H       -2.09888125      -0.70691553       0.45715062
H       -0.46222919      -1.40077737       0.73142663
11
Frame=4 idx=000873 GeodesicLength=0.37973826626974394 rxn_smarts="[N:1]#[C:2][C@@:3]1([H:7])[C:4]([H:8])([H:9])[C:5]([H:10])([H:11])[O:6]1>>[N:1]#[C:2][C@@:3]([C:4](=[C:5]([H:10])[H:11])[H:9])([O:6][H:8])[H:7]"
N        2.60596045      -0.97861660       0.40023881
C        1.71509777      -0.27017146       0.25625023
C        0.61706943       0.63222840      -0.12174619
C       -0.55678708       0.12501823      -0.93950366
C       -1.04229718      -0.59687978       0.26734943
O       -0.37470257       0.71681259       1.00529041
H        1.03655749       1.61115912      -0.35665930
H       -1.02722330       1.25939211       0.18898280
H       -0.38432538      -0.37950022      -1.88416903
H       -2.11014405      -0.71534315       0.43953646
H       -0.47920558      -1.40409925       0.74443004
11
Frame=5 idx=000873 GeodesicLength=0.47432844476461344 rxn_smarts="[N:1]#[C:2][C@@:3]1([H:7])[C:4]([H:8])([H:9])[C:5]([H:10])([H:11])[O:6]1>>[N:1]#[C:2][C@@:3]([C:4](=[C:5]([H:10])[H:11])[H:9])([O:6][H:8])[H:7]"
N        2.61465190      -0.97781443       0.37920057
C        1.72385347      -0.26626721       0.25216762
C        0.61949004       0.63242244      -0.11172638
C       -0.55692829       0.12354131      -0.92819238
C       -1.05110592      -0.60437635       0.26551721
O       -0.36398001       0.72445320       1.01276572
H        1.03504295       1.61061516      -0.35795579
H       -1.03135703       1.27129901       0.17884015
H       -0.37189074      -0.38229152      -1.86984151
H       -2.12123876      -0.72436762       0.42143149
H       -0.49653763      -1.40721399       0.75779330
11
Frame=6 idx=000873 GeodesicLength=0.5692119621033412 rxn_smarts="[N:1]#[C:2][C@@:3]1([H:7])[C:4]([H:8])([H:9])[C:5]([H:10])([H:11])[O:6]1>>[N:1]#[C:2][C@@:3]([C:4](=[C:5]([H:10])[H:11])[H:9])([O:6][H:8])[H:7]"
N        2.62308002      -0.97688607       0.35845020
C        1.73275698      -0.26225092       0.24766408
C        0.62202396       0.63255837      -0.10161938
C       -0.55706091       0.12200789      -0.91655482
C       -1.05993610      -0.61211988       0.26363174
O       -0.35271638       0.73208000       1.02058179
H        1.03347348       1.60992140      -0.35926649
H       -1.03529533       1.28349573       0.16812500
H       -0.35999821      -0.38465543      -1.85531002
H       -2.13212120      -0.73400699       0.40274886
H       -0.51420631      -1.41014410       0.77154904
11
Frame=7 idx=000873 GeodesicLength=0.6640279295279068 rxn_smarts="[N:1]#[C:2][C@@:3]1([H:7])[C:4]([H:8])([H:9])[C:5]([H:10])([H:11])[O:6]1>>[N:1]#[C:2][C@@:3]([C:4](=[C:5]([H:10])[H:11])[H:9])([O:6][H:8])[H:7]"
N        2.63129661      -0.97588760       0.33798054
C        1.74185335      -0.25812797       0.24277275
C        0.62466863       0.63264241      -0.09142075
C       -0.55722618       0.12044850      -0.90460353
C       -1.06879726      -0.62011209       0.26170122
O       -0.34098660       0.73972825       1.02876935
H        1.03182027       1.60909927      -0.36060178
H       -1.03897614       1.29593111       0.15683653
H       -0.34862173      -0.38658861      -1.84067407
H       -2.14277733      -0.74430153       0.38355526
H       -0.53225363      -1.41283174       0.78568447
11
Frame=8 idx=000873 GeodesicLength=0.758829093365996 rxn_smarts="[N:1]#[C:2][C@@:3]1([H:7])[C:4]([H:8])([H:9])[C:5]([H:10])([H:11])[O:6]1>>[N:1]#[C:2][C@@:3]([C:4](=[C:5]([H:10])[H:11])[H:9])([O:6][H:8])[H:7]"
N        2.63928877      -0.97483272       0.31776436
C        1.75112629      -0.25387838       0.23747389
C        0.62742422       0.63268258      -0.08111778
C       -0.55742166       0.11885799      -0.89230822
C       -1.07767814      -0.62837440       0.25972278
O       -0.32875448       0.74739116       1.03735008
H        1.03007273       1.60815626      -0.36193130
H       -1.04239504       1.30861499       0.14491404
H       -0.33776376      -0.38808812      -1.82591979
H       -2.15318424      -0.75526799       0.36383040
H       -0.55071469      -1.41526136       0.80022154
11
Frame=9 idx=000873 GeodesicLength=0.8535844047612051 rxn_smarts="[N:1]#[C:2][C@@:3]1([H:7])[C:4]([H:8])([H:9])[C:5]([H:10])([H:11])[O:6]1>>[N:1]#[C:2][C@@:3]([C:4](=[C:5]([H:10])[H:11])[H:9])([O:6][H:8])[H:7]"
N        2.64706287      -0.97373421       0.29779294
C        1.76056207      -0.24950073       0.23174835
C        0.63029521       0.63267599      -0.07070827
C       -0.55765654       0.11724059      -0.87964130
C       -1.08658580      -0.63691788       0.25769733
O       -0.31598948       0.75505986       1.04633079
H        1.02822688       1.60709223      -0.36323991
H       -1.04554766       1.32156001       0.13232478
H       -0.32743381      -0.38913065      -1.81104004
H       -2.16332702      -0.76695474       0.34353911
H       -0.56960674      -1.41739048       0.81519621
11
Frame=10 idx=000873 GeodesicLength=0.9484030470147403 rxn_smarts="[N:1]#[C:2][C@@:3]1([H:7])[C:4]([H:8])([H:9])[C:5]([H:10])([H:11])[O:6]1>>[N:1]#[C:2][C@@:3]([C:4](=[C:5]([H:10])[H:11])[H:9])([O:6][H:8])[H:7]"
N        2.65461767      -0.97259823       0.27806590
C        1.77013674      -0.24499990       0.22556886
C        0.63327163       0.63262576      -0.06017264
C       -0.55794276       0.11559132      -0.86656051
C       -1.09553467      -0.64576362       0.25563110
O       -0.30265063       0.76274003       1.05576092
H        1.02626717       1.60590267      -0.36450140
H       -1.04841970       1.33478310       0.11897568
H       -0.31767067      -0.38969508      -1.79602390
H       -2.17307001      -0.77940778       0.32266133
H       -0.58900477      -1.41917827       0.83059468
11
Frame=11 idx=000873 GeodesicLength=1.0430697516928282 rxn_smarts="[N:1]#[C:2][C@@:3]1([H:7])[C:4]([H:8])([H:9])[C:5]([H:10])([H:11])[O:6]1>>[N:1]#[C:2][C@@:3]([C:4](=[C:5]([H:10])[H:11])[H:9])([O:6][H:8])[H:7]"
N        2.66198762      -0.97140650       0.25845003
C        1.77984820      -0.24036537       0.21897479
C        0.63636744       0.63252617      -0.04948973
C       -0.55828205       0.11391302      -0.85304510
C       -1.10450608      -0.65492655       0.25352085
O       -0.28876112       0.77042479       1.06563746
H        1.02419059       1.60459564      -0.36567739
H       -1.05095982       1.34826373       0.10483601
H       -0.30841977      -0.38979514      -1.78087390
H       -2.18249238      -0.79264932       0.30117610
H       -0.60897264      -1.42058048       0.84649088
11
Frame=12 idx=000873 GeodesicLength=1.137687161225637 rxn_smarts="[N:1]#[C:2][C@@:3]1([H:7])[C:4]([H:8])([H:9])[C:5]([H:10])([H:11])[O:6]1>>[N:1]#[C:2][C@@:3]([C:4](=[C:5]([H:10])[H:11])[H:9])([O:6][H:8])[H:7]"
N        2.66917316      -0.97017832       0.23886563
C        1.78967697      -0.23559482       0.21194844
C        0.63959184       0.63238354      -0.03864254
C       -0.55866175       0.11220543      -0.83905211
C       -1.11350041      -0.66442297       0.25137217
O       -0.27426802       0.77811575       1.07598255
H        1.02200240       1.60317574      -0.36672713
H       -1.05320888       1.36203777       0.08983528
H       -0.29968832      -0.38941419      -1.76555409
H       -2.19155315      -0.80673968       0.27898212
H       -0.62956386      -1.42156824       0.86298968
11
Frame=13 idx=000873 GeodesicLength=1.2322376667911334 rxn_smarts="[N:1]#[C:2][C@@:3]1([H:7])[C:4]([H:8])([H:9])[C:5]([H:10])([H:11])[O:6]1>>[N:1]#[C:2][C@@:3]([C:4](=[C:5]([H:10])[H:11])[H:9])([O:6][H:8])[H:7]"
N        2.67622976      -0.96885850       0.21916936
C        1.79960096      -0.23071211       0.20452074
C        0.64294570       0.63218162      -0.02758880
C       -0.55909189       0.11045945      -0.82452964
C       -1.12254051      -0.67426899       0.24919682
O       -0.25915792       0.78580828       1.08684131
H        1.01970018       1.60162959      -0.36759928
H       -1.05510125       1.37609688       0.07386777
H       -0.29147108      -0.38854552      -1.75003996
H       -2.20020196      -0.82175143       0.25601962
H       -0.65091199      -1.42203928       0.88014206
11
Frame=14 idx=000873 GeodesicLength=1.3267750852707536 rxn_smarts="[N:1]#[C:2][C@@:3]1([H:7])[C:4]([H:8])([H:9])[C:5]([H:10])([H:11])[O:6]1>>[N:1]#[C:2][C@@:3]([C:4](=[C:5]([H:10])[H:11])[H:9])([O:6][H:8])[H:7]"
N        2.68320357      -0.96740012       0.19922031
C        1.80959278      -0.22574169       0.19670573
C        0.64643282       0.63190932      -0.01628968
C       -0.55957676       0.10866445      -0.80942278
C       -1.13163580      -0.68448723       0.24699994
O       -0.24339177       0.79349018       1.09826035
H        1.01728324       1.59994774      -0.36823683
H       -1.05659818       1.39046168       0.05682252
H       -0.28377759      -0.38717264      -1.73429869
H       -2.20838016      -0.83776912       0.23219220
H       -0.67315215      -1.42190258       0.89804693
11
Frame=15 idx=000873 GeodesicLength=1.4212936330387955 rxn_smarts="[N:1]#[C:2][C@@:3]1([H:7])[C:4]([H:8])([H:9])[C:5]([H:10])([H:11])[O:6]1>>[N:1]#[C:2][C@@:3]([C:4](=[C:5]([H:10])[H:11])[H:9])([O:6][H:8])[H:7]"
N        2.69011426      -0.96576011       0.17887812
C        1.81962744      -0.22069324       0.18850749
C        0.65005924       0.63155496      -0.00470871
C       -0.56011366       0.10681683      -0.79366302
C       -1.14078784      -0.69509963       0.24480232
O       -0.22693331       0.80114138       1.11028285
H        1.01475574       1.59812013      -0.36858827
H       -1.05765991       1.40511263       0.03857645
H       -0.27660900      -0.38526203      -1.71828731
H       -2.21601513      -0.85487791       0.20741321
H       -0.69643784      -1.42105302       0.91678688
11
Frame=16 idx=000873 GeodesicLength=1.515800818299185 rxn_smarts="[N:1]#[C:2][C@@:3]1([H:7])[C:4]([H:8])([H:9])[C:5]([H:10])([H:11])[O:6]1>>[N:1]#[C:2][C@@:3]([C:4](=[C:5]([H:10])[H:11])[H:9])([O:6][H:8])[H:7]"
N        2.69690270      -0.96398169       0.15818560
C        1.82969310      -0.21555017       0.17987667
C        0.65382534       0.63112927       0.00716106
C       -0.56073371       0.10492457      -0.77720417
C       -1.14996332      -0.70615759       0.24259210
O       -0.20971523       0.80873962       1.12295047
H        1.01209305       1.59617332      -0.36861411
H       -1.05824148       1.42003950       0.01901343
H       -0.27003211      -0.38274359      -1.70201513
H       -2.22298964      -0.87316649       0.18169548
H       -0.72083869      -1.41940676       0.93635861
