12
Frame=0 idx=010552 GeodesicLength=0.0 rxn_smarts="[O:1]=[C:2]([C@@:3]1([H:9])[C:4]([H:10])([H:11])[N:5]=[C:6]([H:12])[O:7]1)[H:8]>>[O:1]=[C:2]([C@@:3]([C:4]([N+:5]#[C-:6])([H:10])[H:11])([O:7][H:12])[H:9])[H:8]"
O       -2.09655673       0.17690902       1.06095485
C       -1.56921374      -0.36141640       0.12739913
C       -0.32502135       0.16433219      -0.59153654
C        0.57406257       0.96237207       0.39275722
N        1.53378164      -0.03191582       0.89709471
C        1.69294301      -1.04882950       0.32310459
O        0.34906120      -0.83620244      -1.23055570
H       -1.95608447      -1.30864036      -0.30028911
H       -0.68095104       0.90575088      -1.32649384
H        1.15462993       1.74154358      -0.09991470
H        0.00472051       1.38929233       1.21675782
H        1.31862851      -1.75319550      -0.46927840
12
Frame=1 idx=010552 GeodesicLength=0.0701538405228126 rxn_smarts="[O:1]=[C:2]([C@@:3]1([H:9])[C:4]([H:10])([H:11])[N:5]=[C:6]([H:12])[O:7]1)[H:8]>>[O:1]=[C:2]([C@@:3]([C:4]([N+:5]#[C-:6])([H:10])[H:11])([O:7][H:12])[H:9])[H:8]"
O       -2.10731785       0.18707834       1.05263775
C       -1.57167611      -0.35943475       0.12882344
C       -0.32686981       0.16607187      -0.58793181
C        0.57500382       0.96200050       0.39369592
N        1.53493847      -0.02989564       0.89704179
C        1.68265567      -1.05944950       0.33972629
O        0.35174799      -0.83883921      -1.22132481
H       -1.95064631      -1.31399779      -0.28954298
H       -0.68125059       0.90226581      -1.32792238
H        1.15335543       1.74127430      -0.10154320
H        0.00788245       1.39036577       1.21853862
H        1.33217684      -1.74743971      -0.50219862
12
Frame=2 idx=010552 GeodesicLength=0.14054854583816506 rxn_smarts="[O:1]=[C:2]([C@@:3]1([H:9])[C:4]([H:10])([H:11])[N:5]=[C:6]([H:12])[O:7]1)[H:8]>>[O:1]=[C:2]([C@@:3]([C:4]([N+:5]#[C-:6])([H:10])[H:11])([O:7][H:12])[H:9])[H:8]"
O       -2.11805988       0.19731090       1.04431473
C       -1.57430343      -0.35743892       0.13037041
C       -0.32882298       0.16762121      -0.58439439
C        0.57604594       0.96139162       0.39457898
N        1.53613821      -0.02831347       0.89683749
C        1.67115449      -1.07062705       0.35689980
O        0.35402875      -0.84201581      -1.21194860
H       -1.94583001      -1.31902388      -0.27863180
H       -0.68150478       0.89851905      -1.32952968
H        1.15231793       1.74065605      -0.10334604
H        0.01127604       1.39130978       1.22032590
H        1.34755971      -1.73938948      -0.53547680
12
Frame=3 idx=010552 GeodesicLength=0.21035039944916972 rxn_smarts="[O:1]=[C:2]([C@@:3]1([H:9])[C:4]([H:10])([H:11])[N:5]=[C:6]([H:12])[O:7]1)[H:8]>>[O:1]=[C:2]([C@@:3]([C:4]([N+:5]#[C-:6])([H:10])[H:11])([O:7][H:12])[H:9])[H:8]"
O       -2.12877307       0.20786966       1.03563527
C       -1.57705494      -0.35516327       0.13188968
C       -0.33082568       0.16890773      -0.58076532
C        0.57699910       0.96029232       0.39543155
N        1.53730218      -0.02736005       0.89630590
C        1.65986838      -1.08160437       0.37336590
O        0.35593604      -0.84580831      -1.20212106
H       -1.94148203      -1.32334468      -0.26761550
H       -0.68159201       0.89438677      -1.33105594
H        1.15103083       1.73949619      -0.10505879
H        0.01470382       1.39166654       1.22207103
H        1.36388739      -1.72933853      -0.56808272
12
Frame=4 idx=010552 GeodesicLength=0.28045181990019236 rxn_smarts="[O:1]=[C:2]([C@@:3]1([H:9])[C:4]([H:10])([H:11])[N:5]=[C:6]([H:12])[O:7]1)[H:8]>>[O:1]=[C:2]([C@@:3]([C:4]([N+:5]#[C-:6])([H:10])[H:11])([O:7][H:12])[H:9])[H:8]"
O       -2.13970682       0.21862546       1.02675498
C       -1.58015234      -0.35281475       0.13339508
C       -0.33284838       0.16986506      -0.57713690
C        0.57803171       0.95890466       0.39639917
N        1.53843061      -0.02690105       0.89590031
C        1.64958707      -1.09200000       0.38876600
O        0.35743967      -0.85035968      -1.19205619
H       -1.93804179      -1.32727187      -0.25666198
H       -0.68138077       0.88984904      -1.33281809
H        1.14984011       1.73816399      -0.10665578
H        0.01828718       1.39169510       1.22406208
H        1.38051375      -1.71775598      -0.59994869
12
Frame=5 idx=010552 GeodesicLength=0.35049883884977723 rxn_smarts="[O:1]=[C:2]([C@@:3]1([H:9])[C:4]([H:10])([H:11])[N:5]=[C:6]([H:12])[O:7]1)[H:8]>>[O:1]=[C:2]([C@@:3]([C:4]([N+:5]#[C-:6])([H:10])[H:11])([O:7][H:12])[H:9])[H:8]"
O       -2.15087429       0.22975489       1.01740597
C       -1.58352147      -0.35023384       0.13476830
C       -0.33484998       0.17056292      -0.57346738
C        0.57903160       0.95717046       0.39747860
N        1.53941769      -0.02694225       0.89554264
C        1.64054311      -1.10176304       0.40288625
O        0.35867258      -0.85548379      -1.18172008
H       -1.93495126      -1.33091331      -0.24540041
H       -0.68082861       0.88495661      -1.33465855
H        1.14856249       1.73655750      -0.10801325
H        0.02185797       1.39128373       1.22621893
H        1.39694017      -1.70494987      -0.63104103
12
Frame=6 idx=010552 GeodesicLength=0.4205628432276104 rxn_smarts="[O:1]=[C:2]([C@@:3]1([H:9])[C:4]([H:10])([H:11])[N:5]=[C:6]([H:12])[O:7]1)[H:8]>>[O:1]=[C:2]([C@@:3]([C:4]([N+:5]#[C-:6])([H:10])[H:11])([O:7][H:12])[H:9])[H:8]"
O       -2.16211010       0.24099925       1.00771107
C       -1.58708211      -0.34753270       0.13600489
C       -0.33680181       0.17103541      -0.56976733
C        0.58002178       0.95520156       0.39866667
N        1.54034941      -0.02730998       0.89530045
C        1.63293708      -1.11080155       0.41581654
O        0.35971714      -0.86107787      -1.17113545
H       -1.93228906      -1.33423817      -0.23411502
H       -0.67998552       0.87975881      -1.33660191
H        1.14718047       1.73485790      -0.10915803
H        0.02543231       1.39050993       1.22853665
H        1.41263040      -1.69140260      -0.66125853
12
Frame=7 idx=010552 GeodesicLength=0.4906122315216985 rxn_smarts="[O:1]=[C:2]([C@@:3]1([H:9])[C:4]([H:10])([H:11])[N:5]=[C:6]([H:12])[O:7]1)[H:8]>>[O:1]=[C:2]([C@@:3]([C:4]([N+:5]#[C-:6])([H:10])[H:11])([O:7][H:12])[H:9])[H:8]"
O       -2.17347099       0.25242110       0.99758169
C       -1.59081819      -0.34468511       0.13708579
C       -0.33869221       0.17132943      -0.56604549
C        0.58099426       0.95302014       0.39995789
N        1.54121053      -0.02794882       0.89516042
C        1.62652477      -1.11928294       0.42777054
O        0.36065600      -0.86702599      -1.16034501
H       -1.92980169      -1.33739684      -0.22255841
H       -0.67885184       0.87428465      -1.33861228
H        1.14572551       1.73303778      -0.11008307
H        0.02896033       1.38941951       1.23098622
H        1.42756352      -1.67717289      -0.69089829
12
Frame=8 idx=010552 GeodesicLength=0.5607610100856646 rxn_smarts="[O:1]=[C:2]([C@@:3]1([H:9])[C:4]([H:10])([H:11])[N:5]=[C:6]([H:12])[O:7]1)[H:8]>>[O:1]=[C:2]([C@@:3]([C:4]([N+:5]#[C-:6])([H:10])[H:11])([O:7][H:12])[H:9])[H:8]"
O       -2.18495722       0.26401044       0.98702106
C       -1.59473903      -0.34173303       0.13801598
C       -0.34052954       0.17145630      -0.56233177
C        0.58197723       0.95067355       0.40135560
N        1.54201905      -0.02881197       0.89519923
C        1.62106238      -1.12738183       0.43901722
O        0.36148337      -0.87332211      -1.14937473
H       -1.92745609      -1.34048192      -0.21062805
H       -0.67744524       0.86855022      -1.34075731
H        1.14427486       1.73114401      -0.11082385
H        0.03246842       1.38809167       1.23357207
H        1.44184181      -1.66219534      -0.72026544
12
Frame=9 idx=010552 GeodesicLength=0.6307649331219298 rxn_smarts="[O:1]=[C:2]([C@@:3]1([H:9])[C:4]([H:10])([H:11])[N:5]=[C:6]([H:12])[O:7]1)[H:8]>>[O:1]=[C:2]([C@@:3]([C:4]([N+:5]#[C-:6])([H:10])[H:11])([O:7][H:12])[H:9])[H:8]"
O       -2.19637996       0.27564551       0.97607006
C       -1.59868338      -0.33867600       0.13880700
C       -0.34228830       0.17145527      -0.55858566
C        0.58291610       0.94816350       0.40280599
N        1.54277715      -0.02985240       0.89527403
C        1.61644767      -1.13512460       0.44969600
O        0.36230834      -0.87984827      -1.13816673
H       -1.92513788      -1.34335036      -0.19848734
H       -0.67582278       0.86257812      -1.34289416
H        1.14268821       1.72913845      -0.11140762
H        0.03590030       1.38651758       1.23618192
H        1.45527453      -1.64664682      -0.74929348
12
Frame=10 idx=010552 GeodesicLength=0.7008095627677738 rxn_smarts="[O:1]=[C:2]([C@@:3]1([H:9])[C:4]([H:10])([H:11])[N:5]=[C:6]([H:12])[O:7]1)[H:8]>>[O:1]=[C:2]([C@@:3]([C:4]([N+:5]#[C-:6])([H:10])[H:11])([O:7][H:12])[H:9])[H:8]"
O       -2.20772604       0.28719509       0.96485586
C       -1.60266762      -0.33559429       0.13947156
C       -0.34395580       0.17133657      -0.55484997
C        0.58386604       0.94556995       0.40431562
N        1.54356309      -0.03095130       0.89542223
C        1.61251847      -1.14256896       0.46002111
O        0.36316974      -0.88658168      -1.12679310
H       -1.92292825      -1.34606305      -0.18622928
H       -0.67398150       0.85636902      -1.34510215
H        1.14106443       1.72712335      -0.11187395
H        0.03929628       1.38478632       1.23886582
H        1.46778116      -1.63062103      -0.77810376
12
Frame=11 idx=010552 GeodesicLength=0.7708634354662269 rxn_smarts="[O:1]=[C:2]([C@@:3]1([H:9])[C:4]([H:10])([H:11])[N:5]=[C:6]([H:12])[O:7]1)[H:8]>>[O:1]=[C:2]([C@@:3]([C:4]([N+:5]#[C-:6])([H:10])[H:11])([O:7][H:12])[H:9])[H:8]"
O       -2.21890913       0.29852891       0.95346132
C       -1.60664125      -0.33253708       0.14001966
C       -0.34552659       0.17112653      -0.55113283
C        0.58484304       0.94293387       0.40586160
N        1.54443740      -0.03204410       0.89561106
C        1.60913437      -1.14977191       0.47018028
O        0.36411500      -0.89345865      -1.11525346
H       -1.92083912      -1.34859613      -0.17398608
H       -0.67196761       0.84995017      -1.34737636
H        1.13940226       1.72514442      -0.11226426
H        0.04267881       1.38293472       1.24159587
H        1.47927282      -1.61421074      -0.80671679
12
Frame=12 idx=010552 GeodesicLength=0.8408743672733419 rxn_smarts="[O:1]=[C:2]([C@@:3]1([H:9])[C:4]([H:10])([H:11])[N:5]=[C:6]([H:12])[O:7]1)[H:8]>>[O:1]=[C:2]([C@@:3]([C:4]([N+:5]#[C-:6])([H:10])[H:11])([O:7][H:12])[H:9])[H:8]"
O       -2.22982683       0.30956743       0.94198458
C       -1.61053566      -0.32952564       0.14047402
C       -0.34698532       0.17083579      -0.54742192
C        0.58583828       0.94027600       0.40741575
N        1.54541073      -0.03309176       0.89579791
C        1.60609343      -1.15678295       0.48031953
O        0.36519372      -0.90045472      -1.10352197
H       -1.91885221      -1.35089644      -0.16188963
H       -0.66980576       0.84331634      -1.34966989
H        1.13768066       1.72319241      -0.11261535
H        0.04603505       1.38100954       1.24431835
H        1.48975389      -1.59744599      -0.83519139
12
Frame=13 idx=010552 GeodesicLength=0.9109071696692504 rxn_smarts="[O:1]=[C:2]([C@@:3]1([H:9])[C:4]([H:10])([H:11])[N:5]=[C:6]([H:12])[O:7]1)[H:8]>>[O:1]=[C:2]([C@@:3]([C:4]([N+:5]#[C-:6])([H:10])[H:11])([O:7][H:12])[H:9])[H:8]"
O       -2.24052848       0.32033231       0.93036605
C       -1.61435476      -0.32657073       0.14082251
C       -0.34833333       0.17048325      -0.54373840
C        0.58686721       0.93761078       0.40898643
N        1.54650372      -0.03408126       0.89597704
C        1.60332807      -1.16364846       0.49055813
O        0.36642289      -0.90752525      -1.09163038
H       -1.91689808      -1.35305289      -0.14983348
H       -0.66749339       0.83649421      -1.35200953
H        1.13592601       1.72129410      -0.11291887
H        0.04938144       1.37900961       1.24705868
H        1.49917871      -1.58034567      -0.86363818
12
Frame=14 idx=010552 GeodesicLength=0.9808350491059714 rxn_smarts="[O:1]=[C:2]([C@@:3]1([H:9])[C:4]([H:10])([H:11])[N:5]=[C:6]([H:12])[O:7]1)[H:8]>>[O:1]=[C:2]([C@@:3]([C:4]([N+:5]#[C-:6])([H:10])[H:11])([O:7][H:12])[H:9])[H:8]"
O       -2.25093857       0.33073052       0.91871779
C       -1.61805238      -0.32371054       0.14110085
C       -0.34956298       0.17006696      -0.54007238
C        0.58794063       0.93495435       0.41054899
N        1.54774702      -0.03498359       0.89611256
C        1.60073631      -1.17037721       0.50102223
O        0.36783107      -0.91466285      -1.07955937
H       -1.91504432      -1.35500307      -0.13801143
H       -0.66505754       0.82947115      -1.35437159
H        1.13413495       1.71945217      -0.11322081
H        0.05273769       1.37697169       1.24978201
H        1.50752812      -1.56290958      -0.89204885
12
Frame=15 idx=010552 GeodesicLength=1.0507724371574994 rxn_smarts="[O:1]=[C:2]([C@@:3]1([H:9])[C:4]([H:10])([H:11])[N:5]=[C:6]([H:12])[O:7]1)[H:8]>>[O:1]=[C:2]([C@@:3]([C:4]([N+:5]#[C-:6])([H:10])[H:11])([O:7][H:12])[H:9])[H:8]"
O       -2.26111090       0.34082766       0.90694736
C       -1.62163715      -0.32092738       0.14127606
C       -0.35066946       0.16960662      -0.53643980
C        0.58905701       0.93231080       0.41211657
N        1.54913392      -0.03580623       0.89621201
C        1.59820202      -1.17702621       0.51179256
O        0.36943897      -0.92183822      -1.06732397
H       -1.91314630      -1.35685008      -0.12622750
H       -0.66247521       0.82227175      -1.35677253
H        1.13232382       1.71767123      -0.11349304
H        0.05608954       1.37489265       1.25250271
H        1.51479374      -1.54513258      -0.92059043
12
Frame=16 idx=010552 GeodesicLength=1.1206865137615587 rxn_smarts="[O:1]=[C:2]([C@@:3]1([H:9])[C:4]([H:10])([H:11])[N:5]=[C:6]([H:12])[O:7]1)[H:8]>>[O:1]=[C:2]([C@@:3]([C:4]([N+:5]#[C-:6])([H:10])[H:11])([O:7][H:12])[H:9])[H:8]"
O       -2.27106321       0.35066258       0.89499776
C       -1.62509577      -0.31822478       0.14135312
C       -0.35164761       0.16909347      -0.53283667
C        0.59022033       0.92967213       0.41369301
N        1.55067409      -0.03655208       0.89625978
C        1.59566470      -1.18361381       0.52294231
O        0.37125143      -0.92905740      -1.05490983
H       -1.91117068      -1.35861181      -0.11443370
H       -0.65973642       0.81487753      -1.35920815
H        1.13048872       1.71594203      -0.11373118
H        0.05944749       1.37275781       1.25522722
H        1.52096693      -1.52694566      -0.94935367
