13
Frame=0 idx=002019 GeodesicLength=0.0 rxn_smarts="[C:1]([C@@:2]([O:3][H:10])([C:4]([O:5][H:13])([H:11])[H:12])[H:9])([H:6])([H:7])[H:8]>>[C:1]([O:3][H:10])([H:6])([H:7])[H:8].[C:2]([C:4]([O:5][H:13])([H:11])[H:12])[H:9]"
C       -1.81857040       0.27503299      -0.21146604
C        0.00648727      -0.37786383       0.51462005
O       -0.32273104      -0.12900579      -1.01705082
C        1.32321664       0.27298107       0.74277741
O        2.38841359      -0.22600336      -0.07492453
H       -1.70878820       1.25056273       0.23655916
H       -2.30181545      -0.42491920       0.45603208
H       -2.33617001       0.32974968      -1.17886442
H        0.10484428      -1.46553522       0.58921704
H       -0.39015254      -0.97383744      -1.47782517
H        1.25339353       1.36170676       0.62044261
H        1.61110222       0.07734924       1.77852766
H        2.19077013       0.02978233      -0.97804506
13
Frame=1 idx=002019 GeodesicLength=0.061096971022301334 rxn_smarts="[C:1]([C@@:2]([O:3][H:10])([C:4]([O:5][H:13])([H:11])[H:12])[H:9])([H:6])([H:7])[H:8]>>[C:1]([O:3][H:10])([H:6])([H:7])[H:8].[C:2]([C:4]([O:5][H:13])([H:11])[H:12])[H:9]"
C       -1.82267957       0.26879918      -0.20563657
C       -0.00415613      -0.36645516       0.51343978
O       -0.32288322      -0.11386406      -1.01469145
C        1.32240562       0.26590399       0.73592251
O        2.36786027      -0.26521174      -0.08790550
H       -1.72409853       1.25231517       0.22887426
H       -2.30933535      -0.42191524       0.47014939
H       -2.35023332       0.30651077      -1.16796234
H        0.07533894      -1.45480530       0.60109163
H       -0.33536957      -0.96044836      -1.47700461
H        1.26880897       1.35484713       0.60895053
H        1.60963499       0.07086812       1.77215043
H        2.22470689       0.06345551      -0.97737808
13
Frame=2 idx=002019 GeodesicLength=0.12219646171048498 rxn_smarts="[C:1]([C@@:2]([O:3][H:10])([C:4]([O:5][H:13])([H:11])[H:12])[H:9])([H:6])([H:7])[H:8]>>[C:1]([O:3][H:10])([H:6])([H:7])[H:8].[C:2]([C:4]([O:5][H:13])([H:11])[H:12])[H:9]"
C       -1.82672294       0.26274219      -0.19947759
C       -0.01463606      -0.35593650       0.51157693
O       -0.32389658      -0.10003312      -1.01284578
C        1.32082624       0.25925225       0.72848290
O        2.34627444      -0.30056300      -0.10241936
H       -1.73861954       1.25411469       0.22077938
H       -2.31666034      -0.41786328       0.48532268
H       -2.36436469       0.28320913      -1.15621948
H        0.04746634      -1.44450428       0.61110325
H       -0.28124055      -0.94525701      -1.47590854
H        1.28196430       1.34818579       0.59757855
H        1.60812541       0.06416722       1.76484949
H        2.26148397       0.09248593      -0.97282246
13
Frame=3 idx=002019 GeodesicLength=0.1832260166029504 rxn_smarts="[C:1]([C@@:2]([O:3][H:10])([C:4]([O:5][H:13])([H:11])[H:12])[H:9])([H:6])([H:7])[H:8]>>[C:1]([O:3][H:10])([H:6])([H:7])[H:8].[C:2]([C:4]([O:5][H:13])([H:11])[H:12])[H:9]"
C       -1.83065803       0.25688207      -0.19297869
C       -0.02490700      -0.34645692       0.50897715
O       -0.32572980      -0.08767277      -1.01159579
C        1.31851044       0.25299968       0.72050304
O        2.32409457      -0.33223456      -0.11817918
H       -1.75221772       1.25601659       0.21220588
H       -2.32372589      -0.41265698       0.50162059
H       -2.37859706       0.25987800      -1.14357436
H        0.02126430      -1.43489796       0.61926309
H       -0.22813689      -0.92838807      -1.47470412
H        1.29288561       1.34176075       0.58617826
H        1.60638327       0.05742116       1.75678715
H        2.30083421       0.11734901      -0.96450303
13
Frame=4 idx=002019 GeodesicLength=0.24439492064067608 rxn_smarts="[C:1]([C@@:2]([O:3][H:10])([C:4]([O:5][H:13])([H:11])[H:12])[H:9])([H:6])([H:7])[H:8]>>[C:1]([O:3][H:10])([H:6])([H:7])[H:8].[C:2]([C:4]([O:5][H:13])([H:11])[H:12])[H:9]"
C       -1.83457543       0.25113112      -0.18603874
C       -0.03495756      -0.33798919       0.50553766
O       -0.32841836      -0.07653638      -1.01103380
C        1.31546238       0.24731010       0.71191133
O        2.30161665      -0.36075189      -0.13474503
H       -1.76512651       1.25780071       0.20363051
H       -2.33046723      -0.40669264       0.51890450
H       -2.39307022       0.23671250      -1.12987589
H       -0.00326687      -1.42607968       0.62543985
H       -0.17625608      -0.90956357      -1.47360885
H        1.30177264       1.33575322       0.57416842
H        1.60411038       0.05117756       1.74808570
H        2.34317620       0.13772814      -0.95237568
13
Frame=5 idx=002019 GeodesicLength=0.30521566759482616 rxn_smarts="[C:1]([C@@:2]([O:3][H:10])([C:4]([O:5][H:13])([H:11])[H:12])[H:9])([H:6])([H:7])[H:8]>>[C:1]([O:3][H:10])([H:6])([H:7])[H:8].[C:2]([C:4]([O:5][H:13])([H:11])[H:12])[H:9]"
C       -1.83817006       0.24562626      -0.17883503
C       -0.04472920      -0.33082515       0.50125587
O       -0.33179900      -0.06728517      -1.01106908
C        1.31178259       0.24186459       0.70285944
O        2.27921478      -0.38546326      -0.15235725
H       -1.77658932       1.25978877       0.19408388
H       -2.33675715      -0.39909694       0.53737208
H       -2.40755435       0.21340844      -1.11515750
H       -0.02618404      -1.41828458       0.62983732
H       -0.12616460      -0.88948889      -1.47255037
H        1.30846681       1.32984680       0.56222924
H        1.60153798       0.04489723       1.73866589
H        2.38694557       0.15501190      -0.93633448
13
Frame=6 idx=002019 GeodesicLength=0.3659690477303935 rxn_smarts="[C:1]([C@@:2]([O:3][H:10])([C:4]([O:5][H:13])([H:11])[H:12])[H:9])([H:6])([H:7])[H:8]>>[C:1]([O:3][H:10])([H:6])([H:7])[H:8].[C:2]([C:4]([O:5][H:13])([H:11])[H:12])[H:9]"
C       -1.84172562       0.24017533      -0.17117155
C       -0.05420814      -0.32470410       0.49606490
O       -0.33593798      -0.05916031      -1.01185682
C        1.30746397       0.23713554       0.69320657
O        2.25715055      -0.40726561      -0.17033688
H       -1.78744823       1.26146039       0.18492868
H       -2.34256888      -0.39113206       0.55650403
H       -2.42227178       0.19065168      -1.09932756
H       -0.04737516      -1.41145718       0.63225393
H       -0.07780430      -0.86746011      -1.47186871
H        1.31331887       1.32454436       0.54928329
H        1.59823979       0.03966149       1.72877745
H        2.43316691       0.16755057      -0.91645732
13
Frame=7 idx=002019 GeodesicLength=0.42660806369702414 rxn_smarts="[C:1]([C@@:2]([O:3][H:10])([C:4]([O:5][H:13])([H:11])[H:12])[H:9])([H:6])([H:7])[H:8]>>[C:1]([O:3][H:10])([H:6])([H:7])[H:8].[C:2]([C:4]([O:5][H:13])([H:11])[H:12])[H:9]"
C       -1.84518732       0.23476091      -0.16309632
C       -0.06337824      -0.31962664       0.48993369
O       -0.34078118      -0.05217817      -1.01339115
C        1.30258398       0.23306452       0.68296852
O        2.23556550      -0.42614210      -0.18876387
H       -1.79763206       1.26287324       0.17587111
H       -2.34779983      -0.38260312       0.57640965
H       -2.43722951       0.16818423      -1.08235736
H       -0.06694416      -1.40561879       0.63275141
H       -0.03140227      -0.84355057      -1.47164532
H        1.31646112       1.31979133       0.53543113
H        1.59431045       0.03536131       1.71837599
H        2.48143351       0.17568384      -0.89248747
13
Frame=8 idx=002019 GeodesicLength=0.4872154289081158 rxn_smarts="[C:1]([C@@:2]([O:3][H:10])([C:4]([O:5][H:13])([H:11])[H:12])[H:9])([H:6])([H:7])[H:8]>>[C:1]([O:3][H:10])([H:6])([H:7])[H:8].[C:2]([C:4]([O:5][H:13])([H:11])[H:12])[H:9]"
C       -1.84859991       0.22932564      -0.15459708
C       -0.07224679      -0.31549635       0.48285935
O       -0.34633382      -0.04618119      -1.01569904
C        1.29719424       0.22973149       0.67209286
O        2.21454361      -0.44228593      -0.20770268
H       -1.80732562       1.26395922       0.16705854
H       -2.35238851      -0.37372344       0.59703171
H       -2.45246856       0.14599339      -1.06423110
H       -0.08495850      -1.40074612       0.63140013
H        0.01297780      -0.81763029      -1.47203080
H        1.31807696       1.31568860       0.52046361
H        1.58977179       0.03215360       1.70746524
H        2.53175732       0.17921140      -0.86411074
13
Frame=9 idx=002019 GeodesicLength=0.547470217396458 rxn_smarts="[C:1]([C@@:2]([O:3][H:10])([C:4]([O:5][H:13])([H:11])[H:12])[H:9])([H:6])([H:7])[H:8]>>[C:1]([O:3][H:10])([H:6])([H:7])[H:8].[C:2]([C:4]([O:5][H:13])([H:11])[H:12])[H:9]"
C       -1.85175086       0.22395271      -0.14580120
C       -0.08075165      -0.31246808       0.47484067
O       -0.35246909      -0.04151623      -1.01870114
C        1.29137533       0.22692426       0.66068815
O        2.19434374      -0.45521606      -0.22736295
H       -1.81609528       1.26487519       0.15784461
H       -2.35617804      -0.36389533       0.61847256
H       -2.46783005       0.12388437      -1.04495077
H       -0.10144438      -1.39691959       0.62834583
H        0.05517407      -0.79011835      -1.47295994
H        1.31808580       1.31203304       0.50487577
H        1.58483470       0.02964046       1.69597677
H        2.58270572       0.17882362      -0.83126835
13
Frame=10 idx=002019 GeodesicLength=0.6074573209720423 rxn_smarts="[C:1]([C@@:2]([O:3][H:10])([C:4]([O:5][H:13])([H:11])[H:12])[H:9])([H:6])([H:7])[H:8]>>[C:1]([O:3][H:10])([H:6])([H:7])[H:8].[C:2]([C:4]([O:5][H:13])([H:11])[H:12])[H:9]"
C       -1.85477920       0.21848021      -0.13665203
C       -0.08887937      -0.31021542       0.46592165
O       -0.35915117      -0.03761156      -1.02245117
C        1.28518845       0.22500122       0.64870072
O        2.17504342      -0.46536032      -0.24750906
H       -1.82454701       1.26531948       0.14905632
H       -2.35914052      -0.35408983       0.64032567
H       -2.48331512       0.10215418      -1.02461298
H       -0.11635670      -1.39395702       0.62358982
H        0.09528587      -0.76050174      -1.47456402
H        1.31686490       1.30919236       0.48814695
H        1.57936585       0.02840536       1.68406180
H        2.63442059       0.17318307      -0.79401369
13
Frame=11 idx=002019 GeodesicLength=0.6672181240149838 rxn_smarts="[C:1]([C@@:2]([O:3][H:10])([C:4]([O:5][H:13])([H:11])[H:12])[H:9])([H:6])([H:7])[H:8]>>[C:1]([O:3][H:10])([H:6])([H:7])[H:8].[C:2]([C:4]([O:5][H:13])([H:11])[H:12])[H:9]"
C       -1.85767022       0.21281521      -0.12718393
C       -0.09659215      -0.30855823       0.45608560
O       -0.36633736      -0.03423502      -1.02690877
C        1.27872373       0.22405087       0.63609472
O        2.15663645      -0.47266022      -0.26824619
H       -1.83284136       1.26516809       0.14069575
H       -2.36115856      -0.34447015       0.66251409
H       -2.49888725       0.08061626      -1.00322505
H       -0.12970125      -1.39166189       0.61713067
H        0.13319736      -0.72858795      -1.47681966
H        1.31464302       1.30720525       0.47025582
H        1.57348440       0.02849640       1.67162749
H        2.68650319       0.16182137      -0.75202054
13
Frame=12 idx=002019 GeodesicLength=0.7268245437183342 rxn_smarts="[C:1]([C@@:2]([O:3][H:10])([C:4]([O:5][H:13])([H:11])[H:12])[H:9])([H:6])([H:7])[H:8]>>[C:1]([O:3][H:10])([H:6])([H:7])[H:8].[C:2]([C:4]([O:5][H:13])([H:11])[H:12])[H:9]"
C       -1.86042561       0.20689524      -0.11738908
C       -0.10387004      -0.30738638       0.44535099
O       -0.37399191      -0.03125090      -1.03212121
C        1.27203001       0.22419683       0.62283994
O        2.13918092      -0.47703262      -0.28981447
H       -1.84113917       1.26442512       0.13281425
H       -2.36217054      -0.33520476       0.68508930
H       -2.51450028       0.05912731      -0.98080240
H       -0.14145662      -1.39001212       0.60903551
H        0.16903382      -0.69415555      -1.47986677
H        1.31154862       1.30626795       0.45116012
H        1.56723445       0.03000014       1.65869018
H        2.73852634       0.14412976      -0.70498635
13
Frame=13 idx=002019 GeodesicLength=0.7859785812218164 rxn_smarts="[C:1]([C@@:2]([O:3][H:10])([C:4]([O:5][H:13])([H:11])[H:12])[H:9])([H:6])([H:7])[H:8]>>[C:1]([O:3][H:10])([H:6])([H:7])[H:8].[C:2]([C:4]([O:5][H:13])([H:11])[H:12])[H:9]"
C       -1.86268208       0.20085786      -0.10744597
C       -0.11058994      -0.30699169       0.43371713
O       -0.38193941      -0.02925514      -1.03796212
C        1.26515080       0.22512349       0.60914828
O        2.12301744      -0.47782574      -0.31223853
H       -1.84873093       1.26323870       0.12457171
H       -2.36189110      -0.32538680       0.70812989
H       -2.52988787       0.03758340      -0.95732903
H       -0.15155777      -1.38912103       0.59946839
H        0.20294395      -0.65766014      -1.48343545
H        1.30729427       1.30602280       0.43162761
H        1.56080575       0.03237211       1.64523925
H        2.78806689       0.12104218      -0.65349117
13
Frame=14 idx=002019 GeodesicLength=0.844716767874966 rxn_smarts="[C:1]([C@@:2]([O:3][H:10])([C:4]([O:5][H:13])([H:11])[H:12])[H:9])([H:6])([H:7])[H:8]>>[C:1]([O:3][H:10])([H:6])([H:7])[H:8].[C:2]([C:4]([O:5][H:13])([H:11])[H:12])[H:9]"
C       -1.86455978       0.19445600      -0.09738412
C       -0.11670455      -0.30677705       0.42139211
O       -0.38991111      -0.02740942      -1.04441864
C        1.25824869       0.22736600       0.59512437
O        2.10814039      -0.47542336      -0.33519390
H       -1.85641542       1.26129431       0.11688717
H       -2.36042620      -0.31639911       0.73103628
H       -2.54480229       0.01608275      -0.93320503
H       -0.15991309      -1.38858966       0.58855887
H        0.23503487      -0.61848504      -1.48742731
H        1.30248632       1.30707125       0.41142277
H        1.55410741       0.03626221       1.63161089
H        2.83471476       0.09055112      -0.59840348
13
Frame=15 idx=002019 GeodesicLength=0.9030493693260517 rxn_smarts="[C:1]([C@@:2]([O:3][H:10])([C:4]([O:5][H:13])([H:11])[H:12])[H:9])([H:6])([H:7])[H:8]>>[C:1]([O:3][H:10])([H:6])([H:7])[H:8].[C:2]([C:4]([O:5][H:13])([H:11])[H:12])[H:9]"
C       -1.86592845       0.18762655      -0.08732516
C       -0.12211540      -0.30657385       0.40843840
O       -0.39769192      -0.02552894      -1.05138795
C        1.25143889       0.23097710       0.58089775
O        2.09459755      -0.46954148      -0.35868588
H       -1.86423240       1.25852613       0.10948004
H       -2.35763055      -0.30817714       0.75373312
H       -2.55902321      -0.00571382      -0.90854232
H       -0.16642999      -1.38820195       0.57637182
H        0.26526756      -0.57662735      -1.49158393
H        1.29722471       1.30945981       0.39097995
H        1.54730105       0.04153488       1.61783719
H        2.87722216       0.05224005      -0.54021303
13
Frame=16 idx=002019 GeodesicLength=0.9610845426156412 rxn_smarts="[C:1]([C@@:2]([O:3][H:10])([C:4]([O:5][H:13])([H:11])[H:12])[H:9])([H:6])([H:7])[H:8]>>[C:1]([O:3][H:10])([H:6])([H:7])[H:8].[C:2]([C:4]([O:5][H:13])([H:11])[H:12])[H:9]"
C       -1.86671803       0.18024581      -0.07734186
C       -0.12671925      -0.30610778       0.39493858
O       -0.40511161      -0.02333746      -1.05881060
C        1.24483347       0.23620801       0.56650796
O        2.08238779      -0.45984849      -0.38282399
H       -1.87235904       1.25477647       0.10248991
H       -2.35344153      -0.30112603       0.77599456
H       -2.57233196      -0.02793309      -0.88353305
H       -0.17093635      -1.38768517       0.56302445
H        0.29361756      -0.53201248      -1.49572286
H        1.29161968       1.31346690       0.37049280
H        1.54053878       0.04838071       1.60393899
H        2.91462049       0.00497259      -0.47915488
