12
Frame=0 idx=010589 GeodesicLength=0.0 rxn_smarts="[O:1]=[C:2]([C@@:3]1([H:9])[C:4]([H:10])([H:11])[C@:5]1([C:6]#[N:7])[H:12])[H:8]>>[O:1]=[C:2]=[C:3]([C:4]([C:5](=[C:6]=[N:7][H:8])[H:12])([H:10])[H:11])[H:9]"
O       -1.60503849      -1.57204785       1.62854199
C       -1.03128138      -0.85543440       0.87662043
C       -0.53412887       0.43792759       0.71537784
C        0.88107878       0.80078821       0.41824605
C        0.55122700       0.61698931      -1.03559943
C        0.52914501      -0.66033645      -1.45807704
N        0.19244890      -1.78839050      -1.23611254
H       -0.65289192      -1.54981036      -0.35744553
H       -1.28333328       1.20993423       0.58656137
H        1.61782393       0.10063390       0.80146092
H        1.13690255       1.81854821       0.69693263
H        0.19804777       1.44119814      -1.63650664
12
Frame=1 idx=010589 GeodesicLength=0.07828872500115171 rxn_smarts="[O:1]=[C:2]([C@@:3]1([H:9])[C:4]([H:10])([H:11])[C@:5]1([C:6]#[N:7])[H:12])[H:8]>>[O:1]=[C:2]=[C:3]([C:4]([C:5](=[C:6]=[N:7][H:8])[H:12])([H:10])[H:11])[H:9]"
O       -1.60891851      -1.55294004       1.64512741
C       -1.03113671      -0.85263850       0.88150865
C       -0.53805728       0.44191295       0.71172495
C        0.88024267       0.80049605       0.42128191
C        0.54616086       0.61592112      -1.03114531
C        0.53881279      -0.65927569      -1.46803762
N        0.20586918      -1.79063651      -1.25884689
H       -0.65052874      -1.57008889      -0.36428530
H       -1.28717748       1.21536191       0.59418509
H        1.61182028       0.09476216       0.80400404
H        1.13937530       1.81779919       0.69802805
H        0.19353764       1.43932624      -1.63354497
12
Frame=2 idx=010589 GeodesicLength=0.15669522307821832 rxn_smarts="[O:1]=[C:2]([C@@:3]1([H:9])[C:4]([H:10])([H:11])[C@:5]1([C:6]#[N:7])[H:12])[H:8]>>[O:1]=[C:2]=[C:3]([C:4]([C:5](=[C:6]=[N:7][H:8])[H:12])([H:10])[H:11])[H:9]"
O       -1.61319553      -1.53338307       1.66157657
C       -1.03113232      -0.84971053       0.88668947
C       -0.54206060       0.44593482       0.70817840
C        0.87931038       0.80011486       0.42429124
C        0.54089494       0.61469910      -1.02669195
C        0.54842050      -0.65799768      -1.47812679
N        0.21944293      -1.79264505      -1.28214545
H       -0.64738252      -1.59108177      -0.37072530
H       -1.29091165       1.22086918       0.60201808
H        1.60568821       0.08881323       0.80645753
H        1.14186278       1.81694169       0.69901198
H        0.18906289       1.43744521      -1.63053378
12
Frame=3 idx=010589 GeodesicLength=0.23523646479107063 rxn_smarts="[O:1]=[C:2]([C@@:3]1([H:9])[C:4]([H:10])([H:11])[C@:5]1([C:6]#[N:7])[H:12])[H:8]>>[O:1]=[C:2]=[C:3]([C:4]([C:5](=[C:6]=[N:7][H:8])[H:12])([H:10])[H:11])[H:9]"
O       -1.61783745      -1.51338606       1.67790233
C       -1.03129678      -0.84663112       0.89216737
C       -0.54615016       0.45000131       0.70473729
C        0.87827570       0.79963748       0.42727545
C        0.53542721       0.61331337      -1.02223735
C        0.55797460      -0.65650126      -1.48834149
N        0.23315189      -1.79439903      -1.30603689
H       -0.64342342      -1.61279937      -0.37676139
H       -1.29453111       1.22647364       0.61005045
H        1.59941247       0.08277633       0.80883193
H        1.14436782       1.81596551       0.69988235
H        0.18462924       1.43554919      -1.62747004
12
Frame=4 idx=010589 GeodesicLength=0.31385992462986145 rxn_smarts="[O:1]=[C:2]([C@@:3]1([H:9])[C:4]([H:10])([H:11])[C@:5]1([C:6]#[N:7])[H:12])[H:8]>>[O:1]=[C:2]=[C:3]([C:4]([C:5](=[C:6]=[N:7][H:8])[H:12])([H:10])[H:11])[H:9]"
O       -1.62281416      -1.49295528       1.69411351
C       -1.03166627      -0.84337954       0.89793937
C       -0.55034066       0.45412158       0.70139790
C        0.87712987       0.79905579       0.43023736
C        0.52975845       0.61175270      -1.01777929
C        0.56748508      -0.65478747      -1.49867682
N        0.24692023      -1.79586142      -1.33057646
H       -0.63855208      -1.63527020      -0.38235008
H       -1.29803407       1.23219431       0.61826391
H        1.59297190       0.07663844       0.81114266
H        1.14689106       1.81485885       0.70063950
H        0.18025065       1.43363224      -1.62435156
12
Frame=5 idx=010589 GeodesicLength=0.39254229036076427 rxn_smarts="[O:1]=[C:2]([C@@:3]1([H:9])[C:4]([H:10])([H:11])[C@:5]1([C:6]#[N:7])[H:12])[H:8]>>[O:1]=[C:2]=[C:3]([C:4]([C:5](=[C:6]=[N:7][H:8])[H:12])([H:10])[H:11])[H:9]"
O       -1.62809905      -1.47211008       1.71022317
C       -1.03227274      -0.83993395       0.90400311
C       -0.55464432       0.45830607       0.69815697
C        0.87586596       0.79836295       0.43317885
C        0.52388964       0.61000598      -1.01331613
C        0.57696486      -0.65285842      -1.50912629
N        0.26068625      -1.79699843      -1.35580780
H       -0.63269558      -1.65851260      -0.38746117
H       -1.30141744       1.23805008       0.62664071
H        1.58634821       0.07038930       0.81340406
H        1.14943470       1.81361145       0.70128136
H        0.17593949       1.43168766      -1.62117684
12
Frame=6 idx=010589 GeodesicLength=0.4711881648878117 rxn_smarts="[O:1]=[C:2]([C@@:3]1([H:9])[C:4]([H:10])([H:11])[C@:5]1([C:6]#[N:7])[H:12])[H:8]>>[O:1]=[C:2]=[C:3]([C:4]([C:5](=[C:6]=[N:7][H:8])[H:12])([H:10])[H:11])[H:9]"
O       -1.63367343      -1.45085870       1.72623339
C       -1.03315423      -0.83627353       0.91034968
C       -0.55907589       0.46256454       0.69501141
C        0.87447445       0.79755017       0.43610310
C        0.51782269       0.60805933      -1.00884590
C        0.58642689      -0.65071750      -1.51968231
N        0.27432919      -1.79776040      -1.38179414
H       -0.62569946      -1.68255805      -0.39203188
H       -1.30468065       1.24406083       0.63515908
H        1.57951794       0.06401558       0.81563356
H        1.15199898       1.81221055       0.70180782
H        0.17171352       1.42970717      -1.61794382
12
Frame=7 idx=010589 GeodesicLength=0.5497940882258313 rxn_smarts="[O:1]=[C:2]([C@@:3]1([H:9])[C:4]([H:10])([H:11])[C@:5]1([C:6]#[N:7])[H:12])[H:8]>>[O:1]=[C:2]=[C:3]([C:4]([C:5](=[C:6]=[N:7][H:8])[H:12])([H:10])[H:11])[H:9]"
O       -1.63950727      -1.42921338       1.74216868
C       -1.03433660      -0.83238239       0.91697762
C       -0.56364518       0.46690375       0.69195906
C        0.87294887       0.79661049       0.43901338
C        0.51155913       0.60589843      -1.00436665
C        0.59588822      -0.64836857      -1.53033648
N        0.28779265      -1.79811319      -1.40856092
H       -0.61751030      -1.70740913      -0.39606689
H       -1.30782210       1.25023831       0.64379830
H        1.57246461       0.05750936       0.81784710
H        1.15458400       1.81064625       0.70221707
H        0.16758397       1.42768007      -1.61465027
12
Frame=8 idx=010589 GeodesicLength=0.628225821306241 rxn_smarts="[O:1]=[C:2]([C@@:3]1([H:9])[C:4]([H:10])([H:11])[C@:5]1([C:6]#[N:7])[H:12])[H:8]>>[O:1]=[C:2]=[C:3]([C:4]([C:5](=[C:6]=[N:7][H:8])[H:12])([H:10])[H:11])[H:9]"
O       -1.64560582      -1.40717752       1.75801522
C       -1.03585502      -0.82824525       0.92387370
C       -0.56836528       0.47133040       0.68899691
C        0.87128023       0.79553316       0.44191262
C        0.50510203       0.60350671      -0.99987783
C        0.60536259      -0.64581823      -1.54107913
N        0.30090034      -1.79798620      -1.43618154
H       -0.60790374      -1.73309878      -0.39946750
H       -1.31084262       1.25659734       0.65253032
H        1.56516520       0.05085635       0.82006190
H        1.15718934       1.80890361       0.70250835
H        0.16357275       1.42559842      -1.61129303
12
Frame=9 idx=010589 GeodesicLength=0.7061883445660511 rxn_smarts="[O:1]=[C:2]([C@@:3]1([H:9])[C:4]([H:10])([H:11])[C@:5]1([C:6]#[N:7])[H:12])[H:8]>>[O:1]=[C:2]=[C:3]([C:4]([C:5](=[C:6]=[N:7][H:8])[H:12])([H:10])[H:11])[H:9]"
O       -1.65200716      -1.38477197       1.77372678
C       -1.03775035      -0.82384411       0.93100680
C       -0.57325119       0.47585549       0.68611300
C        0.86945906       0.79431073       0.44480784
C        0.49847326       0.60086556      -0.99537808
C        0.61487311      -0.64308739      -1.55189089
N        0.31325892      -1.79721654      -1.46478010
H       -0.59644350      -1.75972807      -0.40202036
H       -1.31374983       1.26315062       0.66129228
H        1.55759203       0.04404551       0.82230796
H        1.15981136       1.80697084       0.70268651
H        0.15973428       1.42344932      -1.60787175
12
Frame=10 idx=010589 GeodesicLength=0.7839152516594914 rxn_smarts="[O:1]=[C:2]([C@@:3]1([H:9])[C:4]([H:10])([H:11])[C@:5]1([C:6]#[N:7])[H:12])[H:8]>>[O:1]=[C:2]=[C:3]([C:4]([C:5](=[C:6]=[N:7][H:8])[H:12])([H:10])[H:11])[H:9]"
O       -1.65867169      -1.36199767       1.78934797
C       -1.04002855      -0.81917203       0.93839568
C       -0.57830336       0.48047880       0.68331822
C        0.86748314       0.79293292       0.44769628
C        0.49165779       0.59795831      -0.99086726
C        0.62441882      -0.64017480      -1.56276919
N        0.32500567      -1.79584135      -1.49428045
H       -0.58326924      -1.78721305      -0.40387798
H       -1.31653660       1.26990555       0.67009384
H        1.54974025       0.03706762       0.82458299
H        1.16245597       1.80483444       0.70274015
H        0.15604780       1.42122124      -1.60438026
12
Frame=11 idx=010589 GeodesicLength=0.8615641188185341 rxn_smarts="[O:1]=[C:2]([C@@:3]1([H:9])[C:4]([H:10])([H:11])[C@:5]1([C:6]#[N:7])[H:12])[H:8]>>[O:1]=[C:2]=[C:3]([C:4]([C:5](=[C:6]=[N:7][H:8])[H:12])([H:10])[H:11])[H:9]"
O       -1.66557070      -1.33886999       1.80491586
C       -1.04268532      -0.81422042       0.94606100
C       -0.58351723       0.48520259       0.68062160
C        0.86535313       0.79139663       0.45057569
C        0.48464875       0.59476823      -0.98634479
C        0.63400771      -0.63708538      -1.57370546
N        0.33622915      -1.79386239      -1.52461023
H       -0.56850644      -1.81550304      -0.40517795
H       -1.31919579       1.27686417       0.67893166
H        1.54160973       0.02992471       0.82688885
H        1.16512718       1.80248969       0.70265571
H        0.15249981       1.41889520      -1.60081195
12
Frame=12 idx=010589 GeodesicLength=0.9391208059100583 rxn_smarts="[O:1]=[C:2]([C@@:3]1([H:9])[C:4]([H:10])([H:11])[C@:5]1([C:6]#[N:7])[H:12])[H:8]>>[O:1]=[C:2]=[C:3]([C:4]([C:5](=[C:6]=[N:7][H:8])[H:12])([H:10])[H:11])[H:9]"
O       -1.67269026      -1.31539193       1.82044568
C       -1.04572638      -0.80898494       0.95400872
C       -0.58889373       0.49002721       0.67802897
C        0.86306645       0.78969380       0.45344567
C        0.47744512       0.59127615      -0.98180941
C        0.64364042      -0.63382734      -1.58469186
N        0.34690489      -1.79124540      -1.55571747
H       -0.55213126      -1.84456475      -0.40599325
H       -1.32172642       1.28402902       0.68778799
H        1.53319380       0.02261013       0.82923103
H        1.16782700       1.79992511       0.70242508
H        0.14909035       1.41645295      -1.59716114
12
Frame=13 idx=010589 GeodesicLength=1.016722978823966 rxn_smarts="[O:1]=[C:2]([C@@:3]1([H:9])[C:4]([H:10])([H:11])[C@:5]1([C:6]#[N:7])[H:12])[H:8]>>[O:1]=[C:2]=[C:3]([C:4]([C:5](=[C:6]=[N:7][H:8])[H:12])([H:10])[H:11])[H:9]"
O       -1.67999608      -1.29156921       1.83599601
C       -1.04914293      -0.80345716       0.96226725
C       -0.59442765       0.49495389       0.67555058
C        0.86062404       0.78781998       0.45630145
C        0.47003322       0.58746511      -0.97726131
C        0.65331497      -0.63039983      -1.59572380
N        0.35719578      -1.78800904      -1.58750285
H       -0.53433185      -1.87434028      -0.40650791
H       -1.32412094       1.29140182       0.69666359
H        1.52449490       0.01512390       0.83160472
H        1.17056048       1.79713394       0.70203144
H        0.14579605       1.41387687      -1.59341917
12
Frame=14 idx=010589 GeodesicLength=1.0943846919668156 rxn_smarts="[O:1]=[C:2]([C@@:3]1([H:9])[C:4]([H:10])([H:11])[C@:5]1([C:6]#[N:7])[H:12])[H:8]>>[O:1]=[C:2]=[C:3]([C:4]([C:5](=[C:6]=[N:7][H:8])[H:12])([H:10])[H:11])[H:9]"
O       -1.68747004      -1.26739422       1.85159887
C       -1.05292290      -0.79763170       0.97086915
C       -0.60011301       0.49998170       0.67320216
C        0.85802685       0.78576885       0.45913797
C        0.46239673       0.58331676      -0.97269928
C        0.66302109      -0.62680436      -1.60679786
N        0.36723279      -1.78417062      -1.61986351
H       -0.51523624      -1.90476731      -0.40689341
H       -1.32637250       1.29898404       0.70556290
H        1.51551659       0.00746397       0.83400327
H        1.17333285       1.79410692       0.70145667
H        0.14258778       1.41114597      -1.58957693
12
Frame=15 idx=010589 GeodesicLength=1.1721985175026652 rxn_smarts="[O:1]=[C:2]([C@@:3]1([H:9])[C:4]([H:10])([H:11])[C@:5]1([C:6]#[N:7])[H:12])[H:8]>>[O:1]=[C:2]=[C:3]([C:4]([C:5](=[C:6]=[N:7][H:8])[H:12])([H:10])[H:11])[H:9]"
O       -1.69508243      -1.24284966       1.86732661
C       -1.05706440      -0.79149216       0.97985147
C       -0.60594808       0.50511432       0.67099489
C        0.85527325       0.78353149       0.46194807
C        0.45450888       0.57881725      -0.96812366
C        0.67274577      -0.62302735      -1.61791843
N        0.37723650      -1.77977154      -1.65271807
H       -0.49503719      -1.93580892      -0.40733335
H       -1.32847126       1.30678574       0.71449559
H        1.50625586      -0.00037829       0.83641579
H        1.17615246       1.79082953       0.70068378
H        0.13943064       1.40824961      -1.58562270
12
Frame=16 idx=010589 GeodesicLength=1.2501563361752974 rxn_smarts="[O:1]=[C:2]([C@@:3]1([H:9])[C:4]([H:10])([H:11])[C@:5]1([C:6]#[N:7])[H:12])[H:8]>>[O:1]=[C:2]=[C:3]([C:4]([C:5](=[C:6]=[N:7][H:8])[H:12])([H:10])[H:11])[H:9]"
O       -1.70283406      -1.21790135       1.88322558
C       -1.06156807      -0.78502215       0.98925198
C       -0.61193272       0.51035491       0.66894035
C        0.85236052       0.78109567       0.46472596
C        0.44634522       0.57394925      -0.96353315
C        0.68247402      -0.61905729      -1.62908752
N        0.38733270      -1.77481701      -1.68602443
H       -0.47379957      -1.96746189      -0.40794914
H       -1.33040939       1.31481773       0.72346084
H        1.49670709      -0.00841583       0.83883433
H        1.17902676       1.78728307       0.69969739
H        0.13629750       1.40517488      -1.58154219
