10
Frame=0 idx=000370 GeodesicLength=0.0 rxn_smarts="[N:1]([c:2]1[n:3][c:4]([H:9])[n:5][n:6]1[H:10])([H:7])[H:8]>>[N:1]([C@:2]1([H:10])[N:3]=[C:4]([H:9])[N:5]=[N:6]1)([H:7])[H:8]"
N       -1.72948427      -0.14067943       0.24883280
C       -0.37525289      -0.02379000      -0.01947690
N        0.52746823      -1.00382865       0.24068191
C        1.65507571      -0.32677047       0.30670150
N        1.55177004       0.99774864       0.07943117
N        0.27060965       1.24412291      -0.09973720
H       -2.11527336      -1.03129464      -0.02095447
H       -2.28142393       0.64163981      -0.06431062
H        2.61501848      -0.79061834       0.48546125
H       -0.11850767       0.43347016      -1.15662945
10
Frame=1 idx=000370 GeodesicLength=0.05243502160262295 rxn_smarts="[N:1]([c:2]1[n:3][c:4]([H:9])[n:5][n:6]1[H:10])([H:7])[H:8]>>[N:1]([C@:2]1([H:10])[N:3]=[C:4]([H:9])[N:5]=[N:6]1)([H:7])[H:8]"
N       -1.72861954      -0.11923023       0.24258728
C       -0.37501252      -0.01603262      -0.03317836
N        0.52506118      -1.00694875       0.20124360
C        1.65338051      -0.33730535       0.30770394
N        1.55709291       0.99550733       0.11703145
N        0.27959521       1.24803054      -0.06890541
H       -2.10899720      -1.04204223       0.10820077
H       -2.29899159       0.59614447      -0.17857339
H        2.61244899      -0.81098368       0.46406421
H       -0.11595795       0.49286051      -1.16017409
10
Frame=2 idx=000370 GeodesicLength=0.10424068036041076 rxn_smarts="[N:1]([c:2]1[n:3][c:4]([H:9])[n:5][n:6]1[H:10])([H:7])[H:8]>>[N:1]([C@:2]1([H:10])[N:3]=[C:4]([H:9])[N:5]=[N:6]1)([H:7])[H:8]"
N       -1.72841341      -0.09836747       0.23222596
C       -0.37508570      -0.00766900      -0.04891331
N        0.52179365      -1.00910382       0.15986874
C        1.65034090      -0.34880729       0.30824347
N        1.56127886       0.99146030       0.15581770
N        0.28781788       1.25109354      -0.03799115
H       -2.09954128      -1.03434443       0.24062146
H       -2.31399836       0.53244030      -0.29063012
H        2.60828981      -0.83136768       0.44320287
H       -0.11248235       0.55466554      -1.16244561
10
Frame=3 idx=000370 GeodesicLength=0.15598204677400085 rxn_smarts="[N:1]([c:2]1[n:3][c:4]([H:9])[n:5][n:6]1[H:10])([H:7])[H:8]>>[N:1]([C@:2]1([H:10])[N:3]=[C:4]([H:9])[N:5]=[N:6]1)([H:7])[H:8]"
N       -1.72810764      -0.07941117       0.21884531
C       -0.37525055       0.00165612      -0.06775209
N        0.51826365      -1.01040425       0.11112812
C        1.64678519      -0.36189603       0.30158027
N        1.56505229       0.98499104       0.19167374
N        0.29554998       1.25328503      -0.00712401
H       -2.08524740      -1.00804776       0.37234725
H       -2.32677400       0.45064829      -0.39318376
H        2.60072580      -0.85238022       0.43602889
H       -0.11099733       0.62155894      -1.16354373
10
Frame=4 idx=000370 GeodesicLength=0.20755243195419404 rxn_smarts="[N:1]([c:2]1[n:3][c:4]([H:9])[n:5][n:6]1[H:10])([H:7])[H:8]>>[N:1]([C@:2]1([H:10])[N:3]=[C:4]([H:9])[N:5]=[N:6]1)([H:7])[H:8]"
N       -1.72935952      -0.06224623       0.20089167
C       -0.37581780       0.01138075      -0.08547956
N        0.51360673      -1.01008251       0.06869750
C        1.64164739      -0.37475727       0.29941729
N        1.56711446       0.97727043       0.22959832
N        0.30209850       1.25430975       0.02320217
H       -2.07067470      -0.96198664       0.49600016
H       -2.33406735       0.35214705      -0.48929866
H        2.59372776      -0.87284072       0.41838917
H       -0.10827547       0.68680540      -1.16141806
10
Frame=5 idx=000370 GeodesicLength=0.2591787046824665 rxn_smarts="[N:1]([c:2]1[n:3][c:4]([H:9])[n:5][n:6]1[H:10])([H:7])[H:8]>>[N:1]([C@:2]1([H:10])[N:3]=[C:4]([H:9])[N:5]=[N:6]1)([H:7])[H:8]"
N       -1.73148060      -0.04822337       0.17966485
C       -0.37648048       0.02072184      -0.10228691
N        0.50864133      -1.00900882       0.03147741
C        1.63599548      -0.38748228       0.29805244
N        1.56779904       0.96837067       0.26660255
N        0.30742515       1.25379930       0.05213713
H       -2.05787081      -0.89983912       0.60510234
H       -2.33523436       0.24300543      -0.57151217
H        2.58729461      -0.89135293       0.39745584
H       -0.10608935       0.75000928      -1.15669347
10
Frame=6 idx=000370 GeodesicLength=0.3115836254587068 rxn_smarts="[N:1]([c:2]1[n:3][c:4]([H:9])[n:5][n:6]1[H:10])([H:7])[H:8]>>[N:1]([C@:2]1([H:10])[N:3]=[C:4]([H:9])[N:5]=[N:6]1)([H:7])[H:8]"
N       -1.73393227      -0.03727891       0.15664516
C       -0.37710431       0.02969276      -0.11907074
N        0.50381738      -1.00750008      -0.00311726
C        1.63034863      -0.40008894       0.29564654
N        1.56763972       0.95845615       0.30114082
N        0.31182680       1.25195906       0.07911338
H       -2.04631230      -0.82623312       0.69754284
H       -2.33158049       0.12739686      -0.63658209
H        2.58082551      -0.90852109       0.37873224
H       -0.10552866       0.81211730      -1.15005088
10
Frame=7 idx=000370 GeodesicLength=0.3649781628791891 rxn_smarts="[N:1]([c:2]1[n:3][c:4]([H:9])[n:5][n:6]1[H:10])([H:7])[H:8]>>[N:1]([C@:2]1([H:10])[N:3]=[C:4]([H:9])[N:5]=[N:6]1)([H:7])[H:8]"
N       -1.73568132      -0.02952933       0.13375137
C       -0.37754669       0.03877340      -0.13786614
N        0.49984597      -1.00513742      -0.04180630
C        1.62503352      -0.41244238       0.28803877
N        1.56741125       0.94769001       0.33000965
N        0.31566548       1.24905049       0.10372279
H       -2.03310190      -0.74698974       0.77357021
H       -2.32504625       0.00926257      -0.68145590
H        2.57208185      -0.92667875       0.37399948
H       -0.10866191       0.87600116      -1.14196394
10
Frame=8 idx=000370 GeodesicLength=0.4191774775005241 rxn_smarts="[N:1]([c:2]1[n:3][c:4]([H:9])[n:5][n:6]1[H:10])([H:7])[H:8]>>[N:1]([C@:2]1([H:10])[N:3]=[C:4]([H:9])[N:5]=[N:6]1)([H:7])[H:8]"
N       -1.73753967      -0.02396031       0.11008351
C       -0.37790583       0.04754315      -0.15670725
N        0.49624731      -1.00229414      -0.07787776
C        1.61966096      -0.42428461       0.28102798
N        1.56651898       0.93658222       0.35665322
N        0.31876770       1.24516915       0.12603799
H       -2.02146798      -0.66343185       0.83338800
H       -2.31440255      -0.10937970      -0.71049107
H        2.56325383      -0.94424665       0.36995167
H       -0.11313276       0.93830273      -1.13206629
10
Frame=9 idx=000370 GeodesicLength=0.4738439416740345 rxn_smarts="[N:1]([c:2]1[n:3][c:4]([H:9])[n:5][n:6]1[H:10])([H:7])[H:8]>>[N:1]([C@:2]1([H:10])[N:3]=[C:4]([H:9])[N:5]=[N:6]1)([H:7])[H:8]"
N       -1.73981107      -0.02092440       0.08443695
C       -0.37807617       0.05499171      -0.17420010
N        0.49291153      -1.00009686      -0.10700485
C        1.61441787      -0.43575148       0.27713533
N        1.56431720       0.92518191       0.38388740
N        0.32078020       1.23994536       0.14684188
H       -2.01531472      -0.57453504       0.87845048
H       -2.29869058      -0.22656464      -0.72722845
H        2.55697726      -0.95896661       0.35771706
H       -0.11751153       0.99672004      -1.12003569
10
Frame=10 idx=000370 GeodesicLength=0.529568072693334 rxn_smarts="[N:1]([c:2]1[n:3][c:4]([H:9])[n:5][n:6]1[H:10])([H:7])[H:8]>>[N:1]([C@:2]1([H:10])[N:3]=[C:4]([H:9])[N:5]=[N:6]1)([H:7])[H:8]"
N       -1.74305464      -0.01943780       0.05548351
C       -0.37808229       0.06080627      -0.18906587
N        0.48896920      -0.99959414      -0.12542665
C        1.60949675      -0.44732885       0.27734253
N        1.56044448       0.91292093       0.41504098
N        0.32181108       1.23324373       0.16756820
H       -2.01781855      -0.47687855       0.90888907
H       -2.27663457      -0.34511255      -0.73370087
H        2.55510152      -0.96892539       0.32922531
H       -0.12023297       1.05030636      -1.10535622
10
Frame=11 idx=000370 GeodesicLength=0.5860899777824929 rxn_smarts="[N:1]([c:2]1[n:3][c:4]([H:9])[n:5][n:6]1[H:10])([H:7])[H:8]>>[N:1]([C@:2]1([H:10])[N:3]=[C:4]([H:9])[N:5]=[N:6]1)([H:7])[H:8]"
N       -1.74408777      -0.02138010       0.02908661
C       -0.37767558       0.06767137      -0.20981989
N        0.48784641      -0.99667475      -0.15929772
C        1.60434951      -0.45844979       0.27085383
N        1.55704000       0.90061419       0.43766305
N        0.32227084       1.22605546       0.18544411
H       -2.01299176      -0.38575664       0.92816904
H       -2.25523574      -0.45789126      -0.72050946
H        2.54732169      -0.98410297       0.32760228
H       -0.12883761       1.10991449      -1.08919184
10
Frame=12 idx=000370 GeodesicLength=0.6436803896184103 rxn_smarts="[N:1]([c:2]1[n:3][c:4]([H:9])[n:5][n:6]1[H:10])([H:7])[H:8]>>[N:1]([C@:2]1([H:10])[N:3]=[C:4]([H:9])[N:5]=[N:6]1)([H:7])[H:8]"
N       -1.74490160      -0.02643297       0.00118724
C       -0.37693972       0.07370207      -0.23085443
N        0.48781521      -0.99389117      -0.19228714
C        1.59992114      -0.46941553       0.26399257
N        1.55282986       0.88766176       0.46065234
N        0.32183830       1.21751379       0.20283527
H       -2.01257975      -0.29051327       0.93527177
H       -2.22992134      -0.56865832      -0.69497909
H        2.54076801      -0.99843291       0.32408594
H       -0.13883012       1.16846656      -1.06990448
10
Frame=13 idx=000370 GeodesicLength=0.7025749806400656 rxn_smarts="[N:1]([c:2]1[n:3][c:4]([H:9])[n:5][n:6]1[H:10])([H:7])[H:8]>>[N:1]([C@:2]1([H:10])[N:3]=[C:4]([H:9])[N:5]=[N:6]1)([H:7])[H:8]"
N       -1.74617403      -0.03348758      -0.03026473
C       -0.37582718       0.07797240      -0.24875331
N        0.48729822      -0.99321267      -0.21604291
C        1.59604708      -0.48099374       0.26030823
N        1.54698671       0.87321806       0.48784200
N        0.32055555       1.20717351       0.22143664
H       -2.02310662      -0.18596141       0.92589730
H       -2.19729315      -0.67937441      -0.65746459
H        2.53907366      -1.00788539       0.30354893
H       -0.14756023       1.22255123      -1.04650754
10
Frame=14 idx=000370 GeodesicLength=0.7618931224096701 rxn_smarts="[N:1]([c:2]1[n:3][c:4]([H:9])[n:5][n:6]1[H:10])([H:7])[H:8]>>[N:1]([C@:2]1([H:10])[N:3]=[C:4]([H:9])[N:5]=[N:6]1)([H:7])[H:8]"
N       -1.74600645      -0.04426761      -0.06029782
C       -0.37434933       0.08260862      -0.26963626
N        0.48955856      -0.99051741      -0.24933986
C        1.59263126      -0.49208582       0.25262664
N        1.54151033       0.85873253       0.50997079
N        0.31860028       1.19593750       0.23855014
H       -2.03258440      -0.08598741       0.90447524
H       -2.16251865      -0.78274818      -0.60391832
H        2.53449542      -1.02085626       0.29698198
H       -0.16133701       1.27918404      -1.01941253
10
Frame=15 idx=000370 GeodesicLength=0.8213218519894199 rxn_smarts="[N:1]([c:2]1[n:3][c:4]([H:9])[n:5][n:6]1[H:10])([H:7])[H:8]>>[N:1]([C@:2]1([H:10])[N:3]=[C:4]([H:9])[N:5]=[N:6]1)([H:7])[H:8]"
N       -1.74448517      -0.05879282      -0.08939661
C       -0.37249958       0.08724907      -0.29253221
N        0.49421131      -0.98617037      -0.28880367
C        1.58967897      -0.50277297       0.24221386
N        1.53582966       0.84398624       0.52912426
N        0.31584373       1.18357884       0.25445378
H       -2.04295925       0.01064297       0.87043250
H       -2.12454996      -0.87794508      -0.53571507
H        2.52820386      -1.03619588       0.29829862
H       -0.17927357       1.33641999      -0.98807546
10
Frame=16 idx=000370 GeodesicLength=0.8809058260330158 rxn_smarts="[N:1]([c:2]1[n:3][c:4]([H:9])[n:5][n:6]1[H:10])([H:7])[H:8]>>[N:1]([C@:2]1([H:10])[N:3]=[C:4]([H:9])[N:5]=[N:6]1)([H:7])[H:8]"
N       -1.74213404      -0.07668304      -0.11899323
C       -0.37028968       0.09132309      -0.31566425
N        0.50034283      -0.98130030      -0.32932286
C        1.58704828      -0.51371932       0.23167949
N        1.52929637       0.82818164       0.54859651
N        0.31218661       1.16969517       0.27034188
H       -2.05826645       0.10688468       0.82022804
H       -2.08133825      -0.96496857      -0.45208742
H        2.52254950      -1.05123397       0.29720873
H       -0.19939517       1.39182063      -0.95198689
