10
Frame=0 idx=006094 GeodesicLength=0.0 rxn_smarts="[C:1]([C@@:2]1([H:8])[C:3]([H:9])([H:10])[O:4]1)([H:5])([H:6])[H:7]>>[C:1]([C:2]([O+:4]=[C-:3][H:9])([H:8])[H:10])([H:5])([H:6])[H:7]"
C       -1.23127496       0.27859832       0.21689362
C        0.10155771      -0.22322066      -0.27479472
C        1.83027311       0.10574538       0.41527950
O        0.85323486      -0.80441806       0.78586155
H       -1.80908052      -0.55943761       0.60787142
H       -1.78941051       0.74736685      -0.59452045
H       -1.08329029       1.00304066       1.01693772
H        0.07740655      -0.89109179      -1.13592689
H        2.35527318      -0.37213377      -0.45659857
H        0.69531088       0.71555070      -0.58100317
10
Frame=1 idx=006094 GeodesicLength=0.05733599065494872 rxn_smarts="[C:1]([C@@:2]1([H:8])[C:3]([H:9])([H:10])[O:4]1)([H:5])([H:6])[H:7]>>[C:1]([C:2]([O+:4]=[C-:3][H:9])([H:8])[H:10])([H:5])([H:6])[H:7]"
C       -1.23103114       0.27774634       0.21659762
C        0.10082852      -0.22614620      -0.27564543
C        1.82448479       0.09925240       0.41608301
O        0.85194503      -0.81209240       0.78405481
H       -1.81097645      -0.55702326       0.61188878
H       -1.78983339       0.74346534      -0.59645326
H       -1.08088097       1.00646924       1.01280227
H        0.06947247      -0.89824745      -1.13364186
H        2.35870618      -0.35923612      -0.45871540
H        0.70728496       0.72581213      -0.57697053
10
Frame=2 idx=006094 GeodesicLength=0.11466321067614532 rxn_smarts="[C:1]([C@@:2]1([H:8])[C:3]([H:9])([H:10])[O:4]1)([H:5])([H:6])[H:7]>>[C:1]([C:2]([O+:4]=[C-:3][H:9])([H:8])[H:10])([H:5])([H:6])[H:7]"
C       -1.23078825       0.27686362       0.21626186
C        0.10006652      -0.22916737      -0.27656164
C        1.81878112       0.09265501       0.41659107
O        0.85065943      -0.81966743       0.78224433
H       -1.81287372      -0.55458865       0.61589004
H       -1.79025864       0.73952541      -0.59841468
H       -1.07847343       1.00986508       1.00858210
H        0.06143068      -0.90557184      -1.13127260
H        2.36206324      -0.34633590      -0.46075361
H        0.71939304       0.73642206      -0.57256687
10
Frame=3 idx=006094 GeodesicLength=0.17197681070173812 rxn_smarts="[C:1]([C@@:2]1([H:8])[C:3]([H:9])([H:10])[O:4]1)([H:5])([H:6])[H:7]>>[C:1]([C:2]([O+:4]=[C-:3][H:9])([H:8])[H:10])([H:5])([H:6])[H:7]"
C       -1.23054646       0.27594922       0.21588383
C        0.09926925      -0.23229023      -0.27754167
C        1.81316684       0.08596625       0.41678294
O        0.84938402      -0.82712271       0.78044373
H       -1.81477957      -0.55213768       0.61985281
H       -1.79067604       0.73556442      -0.60040365
H       -1.07607235       1.01321238       1.00428845
H        0.05327901      -0.91308118      -1.12880454
H        2.36534000      -0.33344941      -0.46272280
H        0.73163529       0.74738894      -0.56777912
10
Frame=4 idx=006094 GeodesicLength=0.22928565090535802 rxn_smarts="[C:1]([C@@:2]1([H:8])[C:3]([H:9])([H:10])[O:4]1)([H:5])([H:6])[H:7]>>[C:1]([C:2]([O+:4]=[C-:3][H:9])([H:8])[H:10])([H:5])([H:6])[H:7]"
C       -1.23031005       0.27500419       0.21546269
C        0.09843108      -0.23552131      -0.27858823
C        1.80763784       0.07920506       0.41663957
O        0.84813007      -0.83444701       0.77866708
H       -1.81669997      -0.54967488       0.62376433
H       -1.79108477       0.73160166      -0.60242075
H       -1.07368681       1.01650266       0.99993472
H        0.04501791      -0.92079176      -1.12623421
H        2.36853828      -0.32059106      -0.46463053
H        0.74402641       0.75871247      -0.56259467
10
Frame=5 idx=006094 GeodesicLength=0.2866249091583282 rxn_smarts="[C:1]([C@@:2]1([H:8])[C:3]([H:9])([H:10])[O:4]1)([H:5])([H:6])[H:7]>>[C:1]([C:2]([O+:4]=[C-:3][H:9])([H:8])[H:10])([H:5])([H:6])[H:7]"
C       -1.23006790       0.27402167       0.21498761
C        0.09755879      -0.23887825      -0.27968982
C        1.80222177       0.07235400       0.41614211
O        0.84688624      -0.84161388       0.77692161
H       -1.81864841      -0.54719536       0.62759279
H       -1.79145034       0.72763801      -0.60447181
H       -1.07130425       1.01971318       0.99551176
H        0.03663684      -0.92873089      -1.12351370
H        2.37163610      -0.30776796      -0.46650827
H        0.75653115       0.77045949      -0.55697229
10
Frame=6 idx=006094 GeodesicLength=0.3439011677839377 rxn_smarts="[C:1]([C@@:2]1([H:8])[C:3]([H:9])([H:10])[O:4]1)([H:5])([H:6])[H:7]>>[C:1]([C:2]([O+:4]=[C-:3][H:9])([H:8])[H:10])([H:5])([H:6])[H:7]"
C       -1.22982620       0.27301276       0.21445613
C        0.09664737      -0.24234463      -0.28086443
C        1.79686838       0.06546084       0.41528523
O        0.84567748      -0.84861232       0.77520455
H       -1.82060834      -0.54470909       0.63133159
H       -1.79178909       0.72369639      -0.60656258
H       -1.06894966       1.02284776       0.99103935
H        0.02813922      -0.93692274      -1.12064163
H        2.37464009      -0.29500511      -0.46838874
H        0.76920074       0.78257615      -0.55085948
10
Frame=7 idx=006094 GeodesicLength=0.40113427540664703 rxn_smarts="[C:1]([C@@:2]1([H:8])[C:3]([H:9])([H:10])[O:4]1)([H:5])([H:6])[H:7]>>[C:1]([C:2]([O+:4]=[C-:3][H:9])([H:8])[H:10])([H:5])([H:6])[H:7]"
C       -1.22958330       0.27197291       0.21386507
C        0.09569308      -0.24594386      -0.28211444
C        1.79161011       0.05850751       0.41405589
O        0.84449028      -0.85546332       0.77352309
H       -1.82259074      -0.54220110       0.63500396
H       -1.79210315       0.71975375      -0.60869982
H       -1.06659763       1.02591978       0.98649328
H        0.01951787      -0.94536044      -1.11763577
H        2.37754600      -0.28227842      -0.47025473
H        0.78201747       0.79509318      -0.54423653
10
Frame=8 idx=006094 GeodesicLength=0.4583715247880794 rxn_smarts="[C:1]([C@@:2]1([H:8])[C:3]([H:9])([H:10])[O:4]1)([H:5])([H:6])[H:7]>>[C:1]([C:2]([O+:4]=[C-:3][H:9])([H:8])[H:10])([H:5])([H:6])[H:7]"
C       -1.22933682       0.27090209       0.21321045
C        0.09468921      -0.24968689      -0.28344276
C        1.78643374       0.05148013       0.41245902
O        0.84332503      -0.86218479       0.77186553
H       -1.82458968      -0.53965853       0.63862551
H       -1.79239354       0.71579367      -0.61089401
H       -1.06424036       1.02894172       0.98185441
H        0.01076087      -0.95405476      -1.11448813
H        2.38035144      -0.26956322      -0.47212069
H        0.79500010       0.80803059      -0.53706934
10
Frame=9 idx=006094 GeodesicLength=0.515597737392045 rxn_smarts="[C:1]([C@@:2]1([H:8])[C:3]([H:9])([H:10])[O:4]1)([H:5])([H:6])[H:7]>>[C:1]([C:2]([O+:4]=[C-:3][H:9])([H:8])[H:10])([H:5])([H:6])[H:7]"
C       -1.22908414       0.26980047       0.21248465
C        0.09363590      -0.25358107      -0.28485987
C        1.78133445       0.04437695       0.41048470
O        0.84218215      -0.86878531       0.77022284
H       -1.82660102      -0.53707123       0.64220936
H       -1.79266353       0.71180157      -0.61315626
H       -1.06187009       1.03192854       0.97709755
H        0.00185921      -0.96302293      -1.11119112
H        2.38304803      -0.25684892      -0.47400882
H        0.80815904       0.82140193      -0.52928303
10
Frame=10 idx=006094 GeodesicLength=0.5728295371581948 rxn_smarts="[C:1]([C@@:2]1([H:8])[C:3]([H:9])([H:10])[O:4]1)([H:5])([H:6])[H:7]>>[C:1]([C:2]([O+:4]=[C-:3][H:9])([H:8])[H:10])([H:5])([H:6])[H:7]"
C       -1.22882250       0.26866880       0.21168139
C        0.09252993      -0.25764134      -0.28637283
C        1.77630556       0.03719813       0.40812346
O        0.84106542      -0.87527171       0.76859340
H       -1.82862944      -0.53443185       0.64575299
H       -1.79290518       0.70778283      -0.61549734
H       -1.05947711       1.03488414       0.97221577
H       -0.00720192      -0.97229881      -1.10772771
H        2.38563114      -0.24411187      -0.47594036
H        0.82150409       0.83522166      -0.52082878
10
Frame=11 idx=006094 GeodesicLength=0.6300480890762065 rxn_smarts="[C:1]([C@@:2]1([H:8])[C:3]([H:9])([H:10])[O:4]1)([H:5])([H:6])[H:7]>>[C:1]([C:2]([O+:4]=[C-:3][H:9])([H:8])[H:10])([H:5])([H:6])[H:7]"
C       -1.22854768       0.26750677       0.21079183
C        0.09136622      -0.26187772      -0.28798404
C        1.77134686       0.02994254       0.40535603
O        0.83997804      -0.88163720       0.76697244
H       -1.83067718      -0.53172717       0.64924774
H       -1.79310961       0.70373279      -0.61792478
H       -1.05704991       1.03780461       0.96719233
H       -0.01644036      -0.98190278      -1.10407400
H        2.38808674      -0.23133030      -0.47793738
H        0.83504687       0.84948846      -0.51164018
10
Frame=12 idx=006094 GeodesicLength=0.6872672359446461 rxn_smarts="[C:1]([C@@:2]1([H:8])[C:3]([H:9])([H:10])[O:4]1)([H:5])([H:6])[H:7]>>[C:1]([C:2]([O+:4]=[C-:3][H:9])([H:8])[H:10])([H:5])([H:6])[H:7]"
C       -1.22825890       0.26631574       0.20981064
C        0.09014106      -0.26630637      -0.28970184
C        1.76644856       0.02262129       0.40216603
O        0.83892735      -0.88788153       0.76536357
H       -1.83274327      -0.52895430       0.65269651
H       -1.79327538       0.69965771      -0.62044771
H       -1.05458704       1.04069568       0.96202345
H       -0.02585689      -0.99185760      -1.10022479
H        2.39040825      -0.21850731      -0.48001690
H        0.84879627       0.86421668      -0.50166895
10
Frame=13 idx=006094 GeodesicLength=0.7444813430744901 rxn_smarts="[C:1]([C@@:2]1([H:8])[C:3]([H:9])([H:10])[O:4]1)([H:5])([H:6])[H:7]>>[C:1]([C:2]([O+:4]=[C-:3][H:9])([H:8])[H:10])([H:5])([H:6])[H:7]"
C       -1.22795408       0.26509566       0.20872927
C        0.08884879      -0.27094230      -0.29153213
C        1.76161009       0.01523954       0.39853391
O        0.83791904      -0.89399961       0.76376700
H       -1.83483178      -0.52610333       0.65609633
H       -1.79339822       0.69555661      -0.62307645
H       -1.05207860       1.04355884       0.95669625
H       -0.03546415      -1.00218666      -1.09616453
H        2.39258408      -0.20562917      -0.48220242
H        0.86276482       0.87941040      -0.49084723
10
Frame=14 idx=006094 GeodesicLength=0.8016815613006992 rxn_smarts="[C:1]([C@@:2]1([H:8])[C:3]([H:9])([H:10])[O:4]1)([H:5])([H:6])[H:7]>>[C:1]([C:2]([O+:4]=[C-:3][H:9])([H:8])[H:10])([H:5])([H:6])[H:7]"
C       -1.22763013       0.26384714       0.20753904
C        0.08748367      -0.27580140      -0.29348223
C        1.75682303       0.00780263       0.39443703
O        0.83695827      -0.89998573       0.76217793
H       -1.83694284      -0.52316024       0.65944652
H       -1.79347163       0.69142792      -0.62581895
H       -1.04951698       1.04639491       0.95119431
H       -0.04527126      -1.01291315      -1.09187453
H        2.39460048      -0.19267867      -0.48451754
H        0.87696739       0.89506658      -0.47910158
10
Frame=15 idx=006094 GeodesicLength=0.8588862631315647 rxn_smarts="[C:1]([C@@:2]1([H:8])[C:3]([H:9])([H:10])[O:4]1)([H:5])([H:6])[H:7]>>[C:1]([C:2]([O+:4]=[C-:3][H:9])([H:8])[H:10])([H:5])([H:6])[H:7]"
C       -1.22728481       0.26257329       0.20622987
C        0.08604095      -0.28090221      -0.29556039
C        1.75208445       0.00030221       0.38985794
O        0.83605324      -0.90585353       0.76059285
H       -1.83907189      -0.52011125       0.66276187
H       -1.79349876       0.68725693      -0.62869906
H       -1.04689257       1.04922670       0.94549210
H       -0.05529354      -1.02406551      -1.08734403
H        2.39644237      -0.17962920      -0.48699470
H        0.89142057       0.91120257      -0.46633644
10
Frame=16 idx=006094 GeodesicLength=0.9160811846500867 rxn_smarts="[C:1]([C@@:2]1([H:8])[C:3]([H:9])([H:10])[O:4]1)([H:5])([H:6])[H:7]>>[C:1]([C:2]([O+:4]=[C-:3][H:9])([H:8])[H:10])([H:5])([H:6])[H:7]"
C       -1.22691024       0.26127105       0.20479013
C        0.08450822      -0.28626020      -0.29777461
C        1.74737813      -0.00723886       0.38476708
O        0.83520588      -0.91158309       0.75899481
H       -1.84121319      -0.51694096       0.66603791
H       -1.79347259       0.68303282      -0.63171567
H       -1.04418071       1.05204439       0.93956374
H       -0.06555247      -1.03565425      -1.08254981
H        2.39808824      -0.16646868      -0.48964084
H        0.90614874       0.92779778      -0.45247273
