15
Frame=0 idx=008647 GeodesicLength=0.0 rxn_smarts="[C:1]([C@@:2]1([H:11])[O:3][C:4]12[C:5]([H:12])([H:13])[O:6][C:7]2([H:14])[H:15])([H:8])([H:9])[H:10]>>[C:1]([C-:2]=[O+:3][C:4]1([H:11])[C:5]([H:12])([H:13])[O:6][C:7]1([H:14])[H:15])([H:8])([H:9])[H:10]"
C        2.10940774      -0.39481385       0.41376371
C        1.30195911       0.87561285       0.48119404
O        0.62517900       1.06710503      -0.76634309
C       -0.38256781       0.42937801      -0.08108745
C       -1.82225218       0.92817003      -0.10852882
O       -2.27944548      -0.42302996      -0.26221717
C       -0.95096685      -0.93662299      -0.44621597
H        2.26325055      -0.81270357       1.40891679
H        1.75465760      -1.16077661      -0.28317022
H        3.08727195      -0.05178857       0.05817951
H        0.03234911       0.52489146       1.05005669
H       -2.21960074       1.40632249       0.78792880
H       -2.02577363       1.54364193      -0.99005354
H       -0.75831127      -1.22147430      -1.48449986
H       -0.73515705      -1.77391191       0.22207663
15
Frame=1 idx=008647 GeodesicLength=0.06547484055619206 rxn_smarts="[C:1]([C@@:2]1([H:11])[O:3][C:4]12[C:5]([H:12])([H:13])[O:6][C:7]2([H:14])[H:15])([H:8])([H:9])[H:10]>>[C:1]([C-:2]=[O+:3][C:4]1([H:11])[C:5]([H:12])([H:13])[O:6][C:7]1([H:14])[H:15])([H:8])([H:9])[H:10]"
C        2.12738659      -0.39248161       0.40969024
C        1.29693558       0.86140233       0.48031814
O        0.62235155       1.05263146      -0.76279449
C       -0.38990349       0.42284593      -0.07208298
C       -1.82588152       0.93083238      -0.11280223
O       -2.29182123      -0.41670607      -0.27309096
C       -0.96485255      -0.93850368      -0.44459724
H        2.28116435      -0.81547230       1.40284107
H        1.78456474      -1.15865303      -0.29278290
H        3.10313007      -0.03466112       0.06350838
H        0.02945369       0.53213442       1.07033942
H       -2.22756249       1.40943447       0.78158330
H       -2.01897919       1.55001256      -0.99405378
H       -0.76531878      -1.22519897      -1.48111169
H       -0.76066732      -1.77761675       0.22503573
15
Frame=2 idx=008647 GeodesicLength=0.1309223013922365 rxn_smarts="[C:1]([C@@:2]1([H:11])[O:3][C:4]12[C:5]([H:12])([H:13])[O:6][C:7]2([H:14])[H:15])([H:8])([H:9])[H:10]>>[C:1]([C-:2]=[O+:3][C:4]1([H:11])[C:5]([H:12])([H:13])[O:6][C:7]1([H:14])[H:15])([H:8])([H:9])[H:10]"
C        2.14564685      -0.38997045       0.40543932
C        1.29170694       0.84637382       0.47969788
O        0.61949584       1.03762069      -0.75909691
C       -0.39741224       0.41601568      -0.06303154
C       -1.82938886       0.93353912      -0.11716386
O       -2.30432413      -0.41014412      -0.28408971
C       -0.97915725      -0.94053885      -0.44278537
H        2.29902737      -0.81892772       1.39623825
H        1.81566642      -1.15572483      -0.30344427
H        3.11899912      -0.01654821       0.06969414
H        0.02660100       0.53989478       1.09067733
H       -2.23536895       1.41278802       0.77503356
H       -2.01183203       1.55632921      -0.99812129
H       -0.77265054      -1.22940804      -1.47736873
H       -0.78700954      -1.78129909       0.22832121
15
Frame=3 idx=008647 GeodesicLength=0.1963497507464687 rxn_smarts="[C:1]([C@@:2]1([H:11])[O:3][C:4]12[C:5]([H:12])([H:13])[O:6][C:7]2([H:14])[H:15])([H:8])([H:9])[H:10]>>[C:1]([C-:2]=[O+:3][C:4]1([H:11])[C:5]([H:12])([H:13])[O:6][C:7]1([H:14])[H:15])([H:8])([H:9])[H:10]"
C        2.16419378      -0.38726737       0.40101363
C        1.28626979       0.83045872       0.47933799
O        0.61661212       1.02203698      -0.75524165
C       -0.40510503       0.40887506      -0.05392736
C       -1.83276723       0.93628762      -0.12161938
O       -2.31695492      -0.40333664      -0.29521870
C       -0.99390345      -0.94273376      -0.44077146
H        2.31687135      -0.82312748       1.38905802
H        1.84801339      -1.15189767      -0.31518581
H        3.13483065       0.00258524       0.07680762
H        0.02381189       0.54821950       1.11105136
H       -2.24300884       1.41639354       0.76826822
H       -2.00431022       1.56258024      -1.00226400
H       -0.78032967      -1.23412387      -1.47325159
H       -0.81422361      -1.78495012       0.23194311
15
Frame=4 idx=008647 GeodesicLength=0.2617643608093924 rxn_smarts="[C:1]([C@@:2]1([H:11])[O:3][C:4]12[C:5]([H:12])([H:13])[O:6][C:7]2([H:14])[H:15])([H:8])([H:9])[H:10]>>[C:1]([C-:2]=[O+:3][C:4]1([H:11])[C:5]([H:12])([H:13])[O:6][C:7]1([H:14])[H:15])([H:8])([H:9])[H:10]"
C        2.18303374      -0.38435851       0.39641459
C        1.28062135       0.81358333       0.47924149
O        0.61370024       1.00583885      -0.75122106
C       -0.41299321       0.40141096      -0.04476375
C       -1.83600859       0.93907501      -0.12617474
O       -2.32971530      -0.39627608      -0.30648313
C       -1.00911623      -0.94509438      -0.43854507
H        2.33473515      -0.82813413       1.38123703
H        1.88166385      -1.14705829      -0.32804110
H        3.15056209       0.02277090       0.08493857
H        0.02111205       0.55715834       1.13143734
H       -2.25046880       1.42026292       0.76127505
H       -1.99638871       1.56875204      -1.00649007
H       -0.78838295      -1.23937165      -1.46873857
H       -0.84235467      -1.78855929       0.23591342
15
Frame=5 idx=008647 GeodesicLength=0.3271558837827381 rxn_smarts="[C:1]([C@@:2]1([H:11])[O:3][C:4]12[C:5]([H:12])([H:13])[O:6][C:7]2([H:14])[H:15])([H:8])([H:9])[H:10]>>[C:1]([C-:2]=[O+:3][C:4]1([H:11])[C:5]([H:12])([H:13])[O:6][C:7]1([H:14])[H:15])([H:8])([H:9])[H:10]"
C        2.20217135      -0.38121953       0.39165396
C        1.27475704       0.79565861       0.47941177
O        0.61076076       0.98897774      -0.74702634
C       -0.42108821       0.39360474      -0.03553715
C       -1.83910018       0.94189749      -0.13083230
O       -2.34260350      -0.38895343      -0.31788552
C       -1.02482236      -0.94762704      -0.43610403
H        2.35265777      -0.83398883       1.37273178
H        1.91665482      -1.14109583      -0.34201493
H        3.16614341       0.04404233       0.09414996
H        0.01853295       0.56675639       1.15179668
H       -2.25772597       1.42440361       0.75404881
H       -1.98804189       1.57483435      -1.01080244
H       -0.79684708      -1.24517023      -1.46381879
H       -0.87144891      -1.79212038       0.24022854
15
Frame=6 idx=008647 GeodesicLength=0.39254299879172044 rxn_smarts="[C:1]([C@@:2]1([H:11])[O:3][C:4]12[C:5]([H:12])([H:13])[O:6][C:7]2([H:14])[H:15])([H:8])([H:9])[H:10]>>[C:1]([C-:2]=[O+:3][C:4]1([H:11])[C:5]([H:12])([H:13])[O:6][C:7]1([H:14])[H:15])([H:8])([H:9])[H:10]"
C        2.22161402      -0.37783526       0.38673772
C        1.26866936       0.77659062       0.47985541
O        0.60779437       0.97139823      -0.74264853
C       -0.42940372       0.38543851      -0.02624004
C       -1.84203233       0.94475270      -0.13559967
O       -2.35562597      -0.38135589      -0.32943464
C       -1.04105630      -0.95033770      -0.43343813
H        2.37071510      -0.84075080       1.36345709
H        1.95305419      -1.13386995      -0.35713500
H        3.18147839       0.06642864       0.10455455
H        0.01611468       0.57706773       1.17209689
H       -2.26476379       1.42883084       0.74657461
H       -1.97923631       1.58081133      -1.01521091
H       -0.80575951      -1.25154781      -1.45846902
H       -0.90156216      -1.79562118       0.24489967
15
Frame=7 idx=008647 GeodesicLength=0.4579078488189908 rxn_smarts="[C:1]([C@@:2]1([H:11])[O:3][C:4]12[C:5]([H:12])([H:13])[O:6][C:7]2([H:14])[H:15])([H:8])([H:9])[H:10]>>[C:1]([C-:2]=[O+:3][C:4]1([H:11])[C:5]([H:12])([H:13])[O:6][C:7]1([H:14])[H:15])([H:8])([H:9])[H:10]"
C        2.24136502      -0.37418343       0.38168006
C        1.26235190       0.75627053       0.48057252
O        0.60480076       0.95303592      -0.73808060
C       -0.43795365       0.37688860      -0.01686633
C       -1.84479012       0.94763807      -0.14047893
O       -2.36878576      -0.37346994      -0.34113293
C       -1.05785434      -0.95323303      -0.43054464
H        2.38897130      -0.84846302       1.35335406
H        1.99091580      -1.12523822      -0.37339916
H        3.19648634       0.08996733       0.11624248
H        0.01390738       0.58814000       1.19227800
H       -2.27155371       1.43355577       0.73884722
H       -1.96993919       1.58667157      -1.01971758
H       -0.81517035      -1.25852608      -1.45267577
H       -0.93275138      -1.79905406       0.24992160
15
Frame=8 idx=008647 GeodesicLength=0.5232480661879171 rxn_smarts="[C:1]([C@@:2]1([H:11])[O:3][C:4]12[C:5]([H:12])([H:13])[O:6][C:7]2([H:14])[H:15])([H:8])([H:9])[H:10]>>[C:1]([C-:2]=[O+:3][C:4]1([H:11])[C:5]([H:12])([H:13])[O:6][C:7]1([H:14])[H:15])([H:8])([H:9])[H:10]"
C        2.26143587      -0.37023135       0.37649521
C        1.25579639       0.73457591       0.48157545
O        0.60178210       0.93381498      -0.73330521
C       -0.44675280       0.36792674      -0.00740695
C       -1.84735636       0.95054967      -0.14547857
O       -2.38208856      -0.36527708      -0.35298845
C       -1.07526053      -0.95632084      -0.42741430
H        2.40752392      -0.85717137       1.34233510
H        2.03029881      -1.11502023      -0.39082936
H        3.21104816       0.11468219       0.12933407
H        0.01196883       0.60001749       1.21228156
H       -2.27806397       1.43859688       0.73085022
H       -1.96010821       1.59239718      -1.02433457
H       -0.82513622      -1.26613354      -1.44641588
H       -0.96508744      -1.80240664       0.25530168
15
Frame=9 idx=008647 GeodesicLength=0.5885307239321332 rxn_smarts="[C:1]([C@@:2]1([H:11])[O:3][C:4]12[C:5]([H:12])([H:13])[O:6][C:7]2([H:14])[H:15])([H:8])([H:9])[H:10]>>[C:1]([C-:2]=[O+:3][C:4]1([H:11])[C:5]([H:12])([H:13])[O:6][C:7]1([H:14])[H:15])([H:8])([H:9])[H:10]"
C        2.28186117      -0.36594701       0.37115699
C        1.24897894       0.71129141       0.48286908
O        0.59872850       0.91358844      -0.72833778
C       -0.45581776       0.35849946       0.00216977
C       -1.84968636       0.95347892      -0.15061084
O       -2.39555249      -0.35674295      -0.36500989
C       -1.09336903      -0.95961655      -0.42401239
H        2.42654288      -0.86693100       1.33009611
H        2.07137336      -1.10272420      -0.40941906
H        3.22492368       0.14051934       0.14418159
H        0.01039366       0.61274333       1.23200010
H       -2.28422542       1.44399294       0.72255532
H       -1.94964885       1.59793165      -1.02908327
H       -0.83575655      -1.27444155      -1.43964897
H       -0.99874573      -1.80564223       0.26109325
15
Frame=10 idx=008647 GeodesicLength=0.6537840495124384 rxn_smarts="[C:1]([C@@:2]1([H:11])[O:3][C:4]12[C:5]([H:12])([H:13])[O:6][C:7]2([H:14])[H:15])([H:8])([H:9])[H:10]>>[C:1]([C-:2]=[O+:3][C:4]1([H:11])[C:5]([H:12])([H:13])[O:6][C:7]1([H:14])[H:15])([H:8])([H:9])[H:10]"
C        2.30262466      -0.36128589       0.36572473
C        1.24189375       0.68630746       0.48445357
O        0.59565024       0.89230227      -0.72315923
C       -0.46516534       0.34858512       0.01184398
C       -1.85177016       0.95642685      -0.15587393
O       -2.40917890      -0.34785523      -0.37718995
C       -1.11220474      -0.96312502      -0.42036018
H        2.44609179      -0.87776105       1.31671910
H        2.11409668      -1.08836398      -0.42916414
H        3.23807854       0.16759888       0.16075679
H        0.00926483       0.62635317       1.25137154
H       -2.29000318       1.44975299       0.71396907
H       -1.93854025       1.60328554      -1.03395729
H       -0.84709984      -1.28345305      -1.43238147
H       -1.03373809      -1.80876807       0.26724741
15
Frame=11 idx=008647 GeodesicLength=0.7190120526908768 rxn_smarts="[C:1]([C@@:2]1([H:11])[O:3][C:4]12[C:5]([H:12])([H:13])[O:6][C:7]2([H:14])[H:15])([H:8])([H:9])[H:10]>>[C:1]([C-:2]=[O+:3][C:4]1([H:11])[C:5]([H:12])([H:13])[O:6][C:7]1([H:14])[H:15])([H:8])([H:9])[H:10]"
C        2.32372826      -0.35618804       0.36024177
C        1.23451678       0.65942527       0.48631701
O        0.59254341       0.86983281      -0.71776697
C       -0.47481381       0.33813193       0.02161651
C       -1.85357290       0.95939142      -0.16126826
O       -2.42297982      -0.33857756      -0.38953495
C       -1.13184037      -0.96685539      -0.41646498
H        2.46633445      -0.88965386       1.30209933
H        2.15852383      -1.07169608      -0.44998187
H        3.25035681       0.19595380       0.17918453
H        0.00869970       0.64086526       1.27028599
H       -2.29532851       1.45589730       0.70509242
H       -1.92671479       1.60844488      -1.03895163
H       -0.85927309      -1.29320041      -1.42461096
H       -1.07017995      -1.81177135       0.27374208
15
Frame=12 idx=008647 GeodesicLength=0.784245217112477 rxn_smarts="[C:1]([C@@:2]1([H:11])[O:3][C:4]12[C:5]([H:12])([H:13])[O:6][C:7]2([H:14])[H:15])([H:8])([H:9])[H:10]>>[C:1]([C-:2]=[O+:3][C:4]1([H:11])[C:5]([H:12])([H:13])[O:6][C:7]1([H:14])[H:15])([H:8])([H:9])[H:10]"
C        2.34517908      -0.35058786       0.35474490
C        1.22682616       0.63041402       0.48844080
O        0.58940757       0.84602891      -0.71218082
C       -0.48478101       0.32707846       0.03148403
C       -1.85504843       0.96237043      -0.16679422
O       -2.43697597      -0.32886909      -0.40204260
C       -1.15236868      -0.97082426      -0.41232826
H        2.48745428      -0.90260819       1.28610120
H        2.20471974      -1.05240401      -0.47181010
H        3.26155550       0.22563135       0.19967161
H        0.00885374       0.65629657       1.28862038
H       -2.30010941       1.46246120       0.69592665
H       -1.91408531       1.61338688      -1.04406792
H       -0.87241448      -1.30373486      -1.41633347
H       -1.10821279      -1.81463954       0.28056781
15
Frame=13 idx=008647 GeodesicLength=0.8494143681874657 rxn_smarts="[C:1]([C@@:2]1([H:11])[O:3][C:4]12[C:5]([H:12])([H:13])[O:6][C:7]2([H:14])[H:15])([H:8])([H:9])[H:10]>>[C:1]([C-:2]=[O+:3][C:4]1([H:11])[C:5]([H:12])([H:13])[O:6][C:7]1([H:14])[H:15])([H:8])([H:9])[H:10]"
C        2.36697776      -0.34435989       0.34932752
C        1.21878160       0.59894086       0.49077978
O        0.58622892       0.82066893      -0.70637494
C       -0.49508940       0.31531441       0.04143765
C       -1.85612940       0.96536549      -0.17243774
O       -2.45117738      -0.31863871      -0.41472947
C       -1.17389859      -0.97503442      -0.40799664
H        2.50976652      -0.91638862       1.26863207
H        2.25264878      -1.03018295      -0.49433835
H        3.27145411       0.25662150       0.22224684
H        0.00990076       0.67253975       1.30616982
H       -2.30421130       1.46945523       0.68649566
H       -1.90054118       1.61812321      -1.04926366
H       -0.88670219      -1.31506028      -1.40757813
H       -1.14800903      -1.81736451       0.28762959
15
Frame=14 idx=008647 GeodesicLength=0.914600629870695 rxn_smarts="[C:1]([C@@:2]1([H:11])[O:3][C:4]12[C:5]([H:12])([H:13])[O:6][C:7]2([H:14])[H:15])([H:8])([H:9])[H:10]>>[C:1]([C-:2]=[O+:3][C:4]1([H:11])[C:5]([H:12])([H:13])[O:6][C:7]1([H:14])[H:15])([H:8])([H:9])[H:10]"
C        2.38912374      -0.33742529       0.34404191
C        1.21035744       0.56469722       0.49329420
O        0.58301376       0.79352972      -0.70041545
C       -0.50575593       0.30275548       0.05146413
C       -1.85674747       0.96837825      -0.17820041
O       -2.46563179      -0.30782022      -0.42757382
C       -1.19657490      -0.97950766      -0.40346492
H        2.53352757      -0.93098085       1.24952851
H        2.30244598      -1.00460677      -0.51752414
H        3.27972501       0.28902423       0.24723603
H        0.01209479       0.68957262       1.32277011
H       -2.30748776       1.47694824       0.67680438
H       -1.88595845       1.62261233      -1.05454843
H       -0.90235677      -1.32725987      -1.39834708
H       -1.18977522      -1.81991743       0.29493498
15
Frame=15 idx=008647 GeodesicLength=0.9798064000189203 rxn_smarts="[C:1]([C@@:2]1([H:11])[O:3][C:4]12[C:5]([H:12])([H:13])[O:6][C:7]2([H:14])[H:15])([H:8])([H:9])[H:10]>>[C:1]([C-:2]=[O+:3][C:4]1([H:11])[C:5]([H:12])([H:13])[O:6][C:7]1([H:14])[H:15])([H:8])([H:9])[H:10]"
C        2.41160677      -0.32963664       0.33898909
C        1.20151820       0.52726481       0.49588925
O        0.57975768       0.76429298      -0.69436573
C       -0.51679327       0.28926205       0.06152641
C       -1.85680028       0.97141534      -0.18406074
O       -2.48038259      -0.29629689      -0.44054331
C       -1.22056931      -0.98425650      -0.39877362
H        2.55908062      -0.94613282       1.22868905
H        2.35414096      -0.97525108      -0.54109161
H        3.28601612       0.32292762       0.27484505
H        0.01574656       0.70722802       1.33816666
H       -2.30971543       1.48499863       0.66689788
H       -1.87018465       1.62683737      -1.05988701
H       -0.91967334      -1.34037930      -1.38869082
H       -1.23374804      -1.82227358       0.30240944
15
Frame=16 idx=008647 GeodesicLength=1.0450623013675508 rxn_smarts="[C:1]([C@@:2]1([H:11])[O:3][C:4]12[C:5]([H:12])([H:13])[O:6][C:7]2([H:14])[H:15])([H:8])([H:9])[H:10]>>[C:1]([C-:2]=[O+:3][C:4]1([H:11])[C:5]([H:12])([H:13])[O:6][C:7]1([H:14])[H:15])([H:8])([H:9])[H:10]"
C        2.43439968      -0.32082591       0.33426956
C        1.19223710       0.48617612       0.49844839
O        0.57646299       0.73258647      -0.68834704
C       -0.52820472       0.27467834       0.07157512
C       -1.85615282       0.97448783      -0.19000195
O       -2.49549020      -0.28394185      -0.45358181
C       -1.24609633      -0.98930727      -0.39394437
H        2.58680067      -0.96159233       1.20600060
H        2.40777980      -0.94155033      -0.56484811
H        3.28988802       0.35845356       0.30542510
H        0.02124567       0.72528009       1.35208261
H       -2.31060695       1.49370193       0.65682025
H       -1.85302256       1.63076051      -1.06526857
H       -0.93901291      -1.35450961      -1.37865390
H       -1.28022744      -1.82439756       0.31002412
