14
Frame=0 idx=004196 GeodesicLength=0.0 rxn_smarts="[C:1]1([H:7])([H:8])[N:2]([H:9])[C@:3]1([C@@:4]1([H:11])[C:5]([H:12])([H:13])[N:6]1[H:14])[H:10]>>[C-:1]1([H:8])[N:2]([H:9])[C@:3]1([C+:4]1[C:5]([H:12])([H:13])[N:6]1[H:14])[H:10].[H:7][H:11]"
C        1.71951964      -0.02136513      -0.10965056
N        1.79021861      -1.28179709       0.45200436
C        0.56879092      -0.92860884      -0.34364507
C       -0.46999103       0.00888853      -0.08952546
C       -1.92552334       0.10663271      -0.06934454
N       -1.08574486       0.47981369       1.09252058
H        1.21570458       0.93500253      -1.26035085
H        1.60879031       0.80119808       0.60048652
H        1.73985820      -1.30379436       1.46661605
H        0.53463556      -1.46362552      -1.28308512
H        0.24476700       1.06837916      -1.08916884
H       -2.52786837      -0.78195277       0.08245928
H       -2.39378474       0.89687733      -0.64506949
H       -1.01937252       1.48435173       1.19575318
14
Frame=1 idx=004196 GeodesicLength=0.0687913687758062 rxn_smarts="[C:1]1([H:7])([H:8])[N:2]([H:9])[C@:3]1([C@@:4]1([H:11])[C:5]([H:12])([H:13])[N:6]1[H:14])[H:10]>>[C-:1]1([H:8])[N:2]([H:9])[C@:3]1([C+:4]1[C:5]([H:12])([H:13])[N:6]1[H:14])[H:10].[H:7][H:11]"
C        1.73179419      -0.02587446      -0.11622982
N        1.77270395      -1.28259813       0.46296567
C        0.57028462      -0.92527977      -0.35441480
C       -0.46954823       0.01216771      -0.10150324
C       -1.92463468       0.09786815      -0.06212032
N       -1.07418588       0.47614710       1.08985486
H        1.23303292       0.94840857      -1.26084197
H        1.63117603       0.79949304       0.59286402
H        1.68697912      -1.29159787       1.47580853
H        0.53678441      -1.46661111      -1.29008228
H        0.24229646       1.08711106      -1.09485137
H       -2.51840337      -0.79538901       0.09589226
H       -2.40448423       0.88530406      -0.63230021
H       -1.01379532       1.48085067       1.19495866
14
Frame=2 idx=004196 GeodesicLength=0.13761113636436906 rxn_smarts="[C:1]1([H:7])([H:8])[N:2]([H:9])[C@:3]1([C@@:4]1([H:11])[C:5]([H:12])([H:13])[N:6]1[H:14])[H:10]>>[C-:1]1([H:8])[N:2]([H:9])[C@:3]1([C+:4]1[C:5]([H:12])([H:13])[N:6]1[H:14])[H:10].[H:7][H:11]"
C        1.74394836      -0.03076576      -0.12236423
N        1.75498868      -1.28324028       0.47350466
C        0.57155780      -0.92202352      -0.36474451
C       -0.46936848       0.01545861      -0.11331061
C       -1.92371014       0.08908474      -0.05505170
N       -1.06298741       0.47289944       1.08696077
H        1.25079274       0.96158680      -1.26070450
H        1.65366090       0.79710133       0.58590716
H        1.63552127      -1.27877710       1.48335413
H        0.53847454      -1.46975494      -1.29654533
H        0.23950525       1.10597411      -1.10011836
H       -2.50881179      -0.80874434       0.10921416
H       -2.41501177       0.87345539      -0.61985356
H       -1.00855995       1.47774552       1.19375193
14
Frame=3 idx=004196 GeodesicLength=0.2064630262756899 rxn_smarts="[C:1]1([H:7])([H:8])[N:2]([H:9])[C@:3]1([C@@:4]1([H:11])[C:5]([H:12])([H:13])[N:6]1[H:14])[H:10]>>[C-:1]1([H:8])[N:2]([H:9])[C@:3]1([C+:4]1[C:5]([H:12])([H:13])[N:6]1[H:14])[H:10].[H:7][H:11]"
C        1.75598305      -0.03602453      -0.12808310
N        1.73711064      -1.28372152       0.48361631
C        0.57261934      -0.91883062      -0.37466002
C       -0.46944639       0.01875811      -0.12495641
C       -1.92275434       0.08028711      -0.04813411
N       -1.05214758       0.47005909       1.08384888
H        1.26899475       0.97453290      -1.25996723
H        1.67624188       0.79403150       0.57958914
H        1.58548559      -1.26538515       1.48937807
H        0.53971580      -1.47304152      -1.30250235
H        0.23634818       1.12497682      -1.10499718
H       -2.49909816      -0.82201372       0.12243036
H       -2.42538082       0.86134511      -0.60771467
H       -1.00367195       1.47502642       1.19215232
14
Frame=4 idx=004196 GeodesicLength=0.2753429977168218 rxn_smarts="[C:1]1([H:7])([H:8])[N:2]([H:9])[C@:3]1([C@@:4]1([H:11])[C:5]([H:12])([H:13])[N:6]1[H:14])[H:10]>>[C-:1]1([H:8])[N:2]([H:9])[C@:3]1([C+:4]1[C:5]([H:12])([H:13])[N:6]1[H:14])[H:10].[H:7][H:11]"
C        1.76789849      -0.04163957      -0.13341435
N        1.71910493      -1.28403962       0.49329883
C        0.57347886      -0.91569191      -0.38418431
C       -0.46977667       0.02206224      -0.13644775
C       -1.92177085       0.07148259      -0.04136404
N       -1.04166571       0.46761073       1.08052850
H        1.28765130       0.98723775      -1.25865570
H        1.69891284       0.79028899       0.57388090
H        1.53687623      -1.25146239       1.49399519
H        0.54052099      -1.47645413      -1.30797685
H        0.23277500       1.14412395      -1.10951303
H       -2.48926798      -0.83518652       0.13553961
H       -2.43560044       0.84899060      -0.59586808
H       -0.99913700       1.47267731       1.19018106
14
Frame=5 idx=004196 GeodesicLength=0.3442561446882133 rxn_smarts="[C:1]1([H:7])([H:8])[N:2]([H:9])[C@:3]1([C@@:4]1([H:11])[C:5]([H:12])([H:13])[N:6]1[H:14])[H:10]>>[C-:1]1([H:8])[N:2]([H:9])[C@:3]1([C+:4]1[C:5]([H:12])([H:13])[N:6]1[H:14])[H:10].[H:7][H:11]"
C        1.77969750      -0.04759697      -0.13838075
N        1.70100304      -1.28419345       0.50255317
C        0.57414539      -0.91259678      -0.39334262
C       -0.47035375       0.02536913      -0.14779329
C       -1.92076325       0.06267447      -0.03473550
N       -1.03153782       0.46554453       1.07700881
H        1.30678388       0.99969501      -1.25679712
H        1.72167038       0.78588164       0.56876105
H        1.48968223      -1.23705755       1.49731509
H        0.54090220      -1.47997493      -1.31299749
H        0.22873549       1.16342346      -1.11369709
H       -2.47932348      -0.84825950       0.14854959
H       -2.44568338       0.83640156      -0.58429844
H       -0.99495843       1.47068939       1.18785458
14
Frame=6 idx=004196 GeodesicLength=0.41322640499865265 rxn_smarts="[C:1]1([H:7])([H:8])[N:2]([H:9])[C@:3]1([C@@:4]1([H:11])[C:5]([H:12])([H:13])[N:6]1[H:14])[H:10]>>[C-:1]1([H:8])[N:2]([H:9])[C@:3]1([C+:4]1[C:5]([H:12])([H:13])[N:6]1[H:14])[H:10].[H:7][H:11]"
C        1.79138912      -0.05389786      -0.14301155
N        1.68284801      -1.28420716       0.51139253
C        0.57464260      -0.90954885      -0.40216405
C       -0.47117296       0.02867954      -0.15900177
C       -1.91973922       0.05387500      -0.02824294
N       -1.02177418       0.46385416       1.07331682
H        1.32641347       1.01190287      -1.25443806
H        1.74450303       0.78081571       0.56420698
H        1.44390751      -1.22221871       1.49946177
H        0.54090068      -1.48360492      -1.31760950
H        0.22416551       1.18289926      -1.11759325
H       -2.46926459      -0.86122963       0.16146503
H       -2.45565296       0.82361181      -0.57299547
H       -0.99116604       1.46906879       1.18521346
14
Frame=7 idx=004196 GeodesicLength=0.4822005578889196 rxn_smarts="[C:1]1([H:7])([H:8])[N:2]([H:9])[C@:3]1([C@@:4]1([H:11])[C:5]([H:12])([H:13])[N:6]1[H:14])[H:10]>>[C-:1]1([H:8])[N:2]([H:9])[C@:3]1([C+:4]1[C:5]([H:12])([H:13])[N:6]1[H:14])[H:10].[H:7][H:11]"
C        1.80295585      -0.06050862      -0.14729032
N        1.66461626      -1.28405578       0.51978618
C        0.57495453      -0.90650081      -0.41067881
C       -0.47222303       0.03200451      -0.17009932
C       -1.91868339       0.04505920      -0.02186004
N       -1.01232378       0.46256758       1.06940467
H        1.34659741       1.02387610      -1.25151273
H        1.76740677       0.77508356       0.56023908
H        1.39947358      -1.20702963       1.50046910
H        0.54049343      -1.48727577      -1.32182235
H        0.21903164       1.20252315      -1.12124873
H       -2.45905256      -0.87411131       0.17436503
H       -2.46552748       0.81054076      -0.56191842
H       -0.98771923       1.46782705       1.18216668
14
Frame=8 idx=004196 GeodesicLength=0.5511742838295908 rxn_smarts="[C:1]1([H:7])([H:8])[N:2]([H:9])[C@:3]1([C@@:4]1([H:11])[C:5]([H:12])([H:13])[N:6]1[H:14])[H:10]>>[C-:1]1([H:8])[N:2]([H:9])[C@:3]1([C+:4]1[C:5]([H:12])([H:13])[N:6]1[H:14])[H:10].[H:7][H:11]"
C        1.81440806      -0.06744486      -0.15126257
N        1.64630833      -1.28369860       0.52776325
C        0.57507545      -0.90343572      -0.41889433
C       -0.47349942       0.03533102      -0.18106793
C       -1.91758816       0.03622967      -0.01560403
N       -1.00318809       0.46162026       1.06528419
H        1.36735550       1.03553475      -1.24806195
H        1.79040541       0.76866905       0.55677043
H        1.35635503      -1.19137334       1.50040837
H        0.53966488      -1.49094034      -1.32564047
H        0.21327551       1.22230403      -1.12459773
H       -2.44870621      -0.88688245       0.18717745
H       -2.47526796       0.79720919      -0.55105811
H       -0.98459833       1.46687734       1.17878344
14
Frame=9 idx=004196 GeodesicLength=0.6202339027379304 rxn_smarts="[C:1]1([H:7])([H:8])[N:2]([H:9])[C@:3]1([C@@:4]1([H:11])[C:5]([H:12])([H:13])[N:6]1[H:14])[H:10]>>[C-:1]1([H:8])[N:2]([H:9])[C@:3]1([C+:4]1[C:5]([H:12])([H:13])[N:6]1[H:14])[H:10].[H:7][H:11]"
C        1.82576658      -0.07470242      -0.15492961
N        1.62798162      -1.28322953       0.53533235
C        0.57505477      -0.90037181      -0.42686895
C       -0.47499858       0.03868006      -0.19194202
C       -1.91647287       0.02739205      -0.00943928
N       -0.99438271       0.46108052       1.06099670
H        1.38875568       1.04694810      -1.24413825
H        1.81347126       0.76158978       0.55385814
H        1.31453311      -1.17544370       1.49942456
H        0.53850602      -1.49462926      -1.32917305
H        0.20681870       1.24229950      -1.12779228
H       -2.43819245      -0.89957908       0.20001434
H       -2.48496043       0.78362876      -0.54040955
H       -0.98188071       1.46633703       1.17506689
14
Frame=10 idx=004196 GeodesicLength=0.6893295034834429 rxn_smarts="[C:1]1([H:7])([H:8])[N:2]([H:9])[C@:3]1([C@@:4]1([H:11])[C:5]([H:12])([H:13])[N:6]1[H:14])[H:10]>>[C-:1]1([H:8])[N:2]([H:9])[C@:3]1([C+:4]1[C:5]([H:12])([H:13])[N:6]1[H:14])[H:10].[H:7][H:11]"
C        1.83702391      -0.08227140      -0.15828774
N        1.60962877      -1.28261977       0.54248493
C        0.57489177      -0.89726773      -0.43461678
C       -0.47671230       0.04205657      -0.20272810
C       -1.91531849       0.01854225      -0.00335324
N       -0.98587985       0.46094261       1.05650777
H        1.41084533       1.05807550      -1.23971674
H        1.83659450       0.75382597       0.55148804
H        1.27394841      -1.15925452       1.49753556
H        0.53701514      -1.49827754      -1.33241192
H        0.19958850       1.26248926      -1.13084284
H       -2.42747533      -0.91218209       0.21289473
H       -2.49460072       0.76976638      -0.52993246
H       -0.97954963       1.46617450       1.17097880
14
Frame=11 idx=004196 GeodesicLength=0.7584757063020805 rxn_smarts="[C:1]1([H:7])([H:8])[N:2]([H:9])[C@:3]1([C@@:4]1([H:11])[C:5]([H:12])([H:13])[N:6]1[H:14])[H:10]>>[C-:1]1([H:8])[N:2]([H:9])[C@:3]1([C+:4]1[C:5]([H:12])([H:13])[N:6]1[H:14])[H:10].[H:7][H:11]"
C        1.84818757      -0.09014640      -0.16134907
N        1.59125561      -1.28187239       0.54923101
C        0.57459079      -0.89411391      -0.44216148
C       -0.47863669       0.04545910      -0.21343163
C       -1.91412701       0.00967879       0.00265887
N       -0.97767345       0.46119563       1.05183647
H        1.43368904       1.06890315      -1.23481432
H        1.85977632       0.74537851       0.54965379
H        1.23458702      -1.14280986       1.49482180
H        0.53519907      -1.50186550      -1.33539701
H        0.19150477       1.28288155      -1.13380079
H       -2.41656600      -0.92469738       0.22581792
H       -2.50418876       0.75562539      -0.51961808
H       -0.97759827       1.46638330       1.16655251
14
Frame=12 idx=004196 GeodesicLength=0.8276696128300182 rxn_smarts="[C:1]1([H:7])([H:8])[N:2]([H:9])[C@:3]1([C@@:4]1([H:11])[C:5]([H:12])([H:13])[N:6]1[H:14])[H:10]>>[C-:1]1([H:8])[N:2]([H:9])[C@:3]1([C+:4]1[C:5]([H:12])([H:13])[N:6]1[H:14])[H:10].[H:7][H:11]"
C        1.85926168      -0.09832464      -0.16411132
N        1.57286652      -1.28099438       0.55557206
C        0.57416507      -0.89088786      -0.44952789
C       -0.48076592       0.04889512      -0.22406189
C       -1.91288912       0.00080157       0.00861347
N       -0.96975132       0.46184797       1.04697830
H        1.45735596       1.07940986      -1.22943401
H        1.88300398       0.73623582       0.54836161
H        1.19640434      -1.12614735       1.49133144
H        0.53308059      -1.50535637      -1.33815785
H        0.18247226       1.30348150      -1.13671939
H       -2.40543401      -0.93712146       0.23881481
H       -2.51373458       0.74119212      -0.50943967
H       -0.97603545       1.46696809       1.16178034
14
Frame=13 idx=004196 GeodesicLength=0.8969247276687797 rxn_smarts="[C:1]1([H:7])([H:8])[N:2]([H:9])[C@:3]1([C@@:4]1([H:11])[C:5]([H:12])([H:13])[N:6]1[H:14])[H:10]>>[C-:1]1([H:8])[N:2]([H:9])[C@:3]1([C+:4]1[C:5]([H:12])([H:13])[N:6]1[H:14])[H:10].[H:7][H:11]"
C        1.87025353      -0.10680695      -0.16657510
N        1.55446569      -1.28000617       0.56151507
C        0.57363198      -0.88757663      -0.45674487
C       -0.48309425       0.05237207      -0.23462853
C       -1.91159722      -0.00808871       0.01452712
N       -0.96210770       0.46291023       1.04194416
H        1.48192643       1.08958143      -1.22358978
H        1.90626280       0.72639152       0.54762201
H        1.15936096      -1.10930599       1.48712634
H        0.53069184      -1.50872727      -1.34074078
H        0.17238376       1.32430622      -1.13966926
H       -2.39405461      -0.94945997       0.25191622
H       -2.52324649       0.72646327      -0.49937665
H       -0.97487671       1.46794696       1.15667406
14
Frame=14 idx=004196 GeodesicLength=0.9662103324135849 rxn_smarts="[C:1]1([H:7])([H:8])[N:2]([H:9])[C@:3]1([C@@:4]1([H:11])[C:5]([H:12])([H:13])[N:6]1[H:14])[H:10]>>[C-:1]1([H:8])[N:2]([H:9])[C@:3]1([C+:4]1[C:5]([H:12])([H:13])[N:6]1[H:14])[H:10].[H:7][H:11]"
C        1.88116029      -0.11557952      -0.16871335
N        1.53603614      -1.27888652       0.56704562
C        0.57299018      -0.88412979      -0.46383251
C       -0.48561677       0.05589702      -0.24514192
C       -1.91023434      -0.01700091       0.02042031
N       -0.95470380       0.46439263       1.03669825
H        1.50749177       1.09938006      -1.21723798
H        1.92954288       0.71582064       0.54746313
H        1.12339424      -1.09231398       1.48221134
H        0.52802691      -1.51189560      -1.34315804
H        0.16112225       1.34532098      -1.14271596
H       -2.38239035      -0.96169753       0.26516119
H       -2.53272863       0.71138882      -0.48938293
H       -0.97409076       1.46930371       1.15118286
14
Frame=15 idx=004196 GeodesicLength=1.0355380618745686 rxn_smarts="[C:1]1([H:7])([H:8])[N:2]([H:9])[C@:3]1([C@@:4]1([H:11])[C:5]([H:12])([H:13])[N:6]1[H:14])[H:10]>>[C-:1]1([H:8])[N:2]([H:9])[C@:3]1([C+:4]1[C:5]([H:12])([H:13])[N:6]1[H:14])[H:10].[H:7][H:11]"
C        1.89199493      -0.12463919      -0.17052698
N        1.51760696      -1.27765700       0.57217989
C        0.57226968      -0.88054531      -0.47080657
C       -0.48832844       0.05946860      -0.25559661
C       -1.90879946      -0.02591450       0.02629934
N       -0.94755252       0.46627808       1.03127882
H        1.53413594       1.10876076      -1.21043620
H        1.95281404       0.70453354       0.54789007
H        1.08850487      -1.07520091       1.47666122
H        0.52513607      -1.51485501      -1.34544972
H        0.14853388       1.36654034      -1.14594641
H       -2.37044465      -0.97382226       0.27852697
H       -2.54217013       0.69602030      -0.47944684
H       -0.97370117       1.47103256       1.14537300
14
Frame=16 idx=004196 GeodesicLength=1.1049323344302977 rxn_smarts="[C:1]1([H:7])([H:8])[N:2]([H:9])[C@:3]1([C@@:4]1([H:11])[C:5]([H:12])([H:13])[N:6]1[H:14])[H:10]>>[C-:1]1([H:8])[N:2]([H:9])[C@:3]1([C+:4]1[C:5]([H:12])([H:13])[N:6]1[H:14])[H:10].[H:7][H:11]"
C        1.90276586      -0.13400058      -0.17199331
N        1.49913820      -1.27634796       0.57691024
C        0.57148198      -0.87678416      -0.47771574
C       -0.49122486       0.06311162      -0.26601958
C       -1.90727029      -0.03484998       0.03220525
N       -0.94062199       0.46862427       1.02566443
H        1.56199860       1.11772081      -1.20313151
H        1.97607220       0.69248910       0.54895228
H        1.05458940      -1.05802281       1.47049687
H        0.52204794      -1.51753525      -1.34769174
H        0.13448012       1.38797731      -1.14946602
H       -2.35813976      -0.98585695       0.29212552
H       -2.55160099       0.68028139      -0.46952420
H       -0.97371641       1.47319321       1.13918752
