15
Frame=0 idx=007298 GeodesicLength=0.0 rxn_smarts="[C:1]([C:2]([C:3](=[O:4])[C:5]#[C:6][C:7]([H:13])([H:14])[H:15])([H:11])[H:12])([H:8])([H:9])[H:10]>>[C:1]([C:2]([C:3]([O-:4])=[C+:5][C:6](=[C:7]([H:13])[H:15])[H:14])([H:11])[H:12])([H:8])([H:9])[H:10]"
C       -2.64332906      -0.33829406       0.47277091
C       -1.37832456      -0.21526334      -0.35890805
C       -0.35041501       0.71139364       0.26635857
O       -0.55496159       1.33737660       1.28867235
C        0.87674523       0.84936414      -0.46433561
C        2.08882312       0.45633580      -0.33335137
C        3.32246430      -0.10253320      -0.56771749
H       -2.42436171      -0.72940139       1.46642528
H       -3.35405822      -1.00748251      -0.01412995
H       -3.11715010       0.63419771       0.60413705
H       -1.59975946       0.16544600      -1.36042753
H       -0.90345667      -1.19058789      -0.51098960
H        4.18210319       0.22431177       0.00227443
H        2.41121111       0.15321054       0.74644049
H        3.44446942      -0.94807386      -1.23721952
15
Frame=1 idx=007298 GeodesicLength=0.059462466668557444 rxn_smarts="[C:1]([C:2]([C:3](=[O:4])[C:5]#[C:6][C:7]([H:13])([H:14])[H:15])([H:11])[H:12])([H:8])([H:9])[H:10]>>[C:1]([C:2]([C:3]([O-:4])=[C+:5][C:6](=[C:7]([H:13])[H:15])[H:14])([H:11])[H:12])([H:8])([H:9])[H:10]"
C       -2.65396225      -0.32840384       0.45820732
C       -1.36547497      -0.23295398      -0.34059274
C       -0.35057913       0.70532748       0.28689873
O       -0.56559786       1.33620922       1.30395744
C        0.87872351       0.85936290      -0.43730371
C        2.09819604       0.48842476      -0.30725773
C        3.31370628      -0.09671915      -0.57422450
H       -2.46480986      -0.69334168       1.46777441
H       -3.35417059      -1.00767987      -0.02994242
H       -3.12667667       0.64928137       0.54946615
H       -1.55903155       0.11825909      -1.35857053
H       -0.88940214      -1.21325697      -0.45125895
H        4.19530528       0.21012456      -0.02693885
H        2.43612881       0.10594048       0.75697119
H        3.40764512      -0.90057437      -1.29718579
15
Frame=2 idx=007298 GeodesicLength=0.1187547147891089 rxn_smarts="[C:1]([C:2]([C:3](=[O:4])[C:5]#[C:6][C:7]([H:13])([H:14])[H:15])([H:11])[H:12])([H:8])([H:9])[H:10]>>[C:1]([C:2]([C:3]([O-:4])=[C+:5][C:6](=[C:7]([H:13])[H:15])[H:14])([H:11])[H:12])([H:8])([H:9])[H:10]"
C       -2.66496637      -0.31728279       0.44280427
C       -1.35352351      -0.25109052      -0.32101764
C       -0.35065944       0.69790019       0.30806375
O       -0.57602903       1.33494377       1.31894061
C        0.88116538       0.86545977      -0.40918276
C        2.10662555       0.51334892      -0.27852842
C        3.30587953      -0.08945678      -0.58182235
H       -2.50696707      -0.65479159       1.46711287
H       -3.35533350      -1.00619242      -0.04582890
H       -3.13407617       0.66519817       0.49277959
H       -1.51767595       0.06958455      -1.35414937
H       -0.87882227      -1.23594004      -0.38913992
H        4.20742622       0.20178561      -0.05883831
H        2.46222267       0.05360649       0.76437090
H        3.37473396      -0.84707333      -1.35556431
15
Frame=3 idx=007298 GeodesicLength=0.1779249266591603 rxn_smarts="[C:1]([C:2]([C:3](=[O:4])[C:5]#[C:6][C:7]([H:13])([H:14])[H:15])([H:11])[H:12])([H:8])([H:9])[H:10]>>[C:1]([C:2]([C:3]([O-:4])=[C+:5][C:6](=[C:7]([H:13])[H:15])[H:14])([H:11])[H:12])([H:8])([H:9])[H:10]"
C       -2.67553429      -0.30584121       0.42671480
C       -1.34244328      -0.26887306      -0.30099348
C       -0.35066478       0.68978697       0.32943417
O       -0.58594036       1.33312201       1.33400416
C        0.88392298       0.86917023      -0.38063915
C        2.11423773       0.53288320      -0.24836501
C        3.29820390      -0.08165600      -0.59012784
H       -2.54893068      -0.61574959       1.46400035
H       -3.35676709      -1.00376937      -0.06192729
H       -3.13899517       0.68060594       0.43585032
H       -1.47666434       0.02135628      -1.34740408
H       -0.87134268      -1.25744620      -0.32704966
H        4.21827857       0.19822636      -0.09355086
H        2.49002948       0.00057855       0.76875373
H        3.34261001      -0.79239411      -1.40870017
15
Frame=4 idx=007298 GeodesicLength=0.23689175992092742 rxn_smarts="[C:1]([C:2]([C:3](=[O:4])[C:5]#[C:6][C:7]([H:13])([H:14])[H:15])([H:11])[H:12])([H:8])([H:9])[H:10]>>[C:1]([C:2]([C:3]([O-:4])=[C+:5][C:6](=[C:7]([H:13])[H:15])[H:14])([H:11])[H:12])([H:8])([H:9])[H:10]"
C       -2.68556173      -0.29400263       0.41033562
C       -1.33241131      -0.28635235      -0.28048287
C       -0.35078335       0.68135600       0.35038107
O       -0.59540345       1.33160103       1.34814995
C        0.88685769       0.87032487      -0.35230508
C        2.12098066       0.54685935      -0.21714340
C        3.29111836      -0.07306264      -0.59870579
H       -2.59013837      -0.57565742       1.45889913
H       -3.35838063      -1.00065341      -0.07733925
H       -3.14161211       0.69550245       0.37875582
H       -1.43660108      -0.02688053      -1.33833504
H       -0.86692706      -1.27780053      -0.26468535
H        4.22765073       0.19888570      -0.12866825
H        2.51832065      -0.05546379       0.76951384
H        3.31289101      -0.73465611      -1.45837039
15
Frame=5 idx=007298 GeodesicLength=0.29555759606521886 rxn_smarts="[C:1]([C:2]([C:3](=[O:4])[C:5]#[C:6][C:7]([H:13])([H:14])[H:15])([H:11])[H:12])([H:8])([H:9])[H:10]>>[C:1]([C:2]([C:3]([O-:4])=[C+:5][C:6](=[C:7]([H:13])[H:15])[H:14])([H:11])[H:12])([H:8])([H:9])[H:10]"
C       -2.69499835      -0.28194063       0.39333984
C       -1.32314528      -0.30358855      -0.25945657
C       -0.35086800       0.67241754       0.37155342
O       -0.60442686       1.32974107       1.36236352
C        0.88996739       0.86973944      -0.32367859
C        2.12707123       0.55633355      -0.18526722
C        3.28416810      -0.06409661      -0.60767258
H       -2.63083441      -0.53489142       1.45150868
H       -3.36005377      -0.99686755      -0.09285628
H       -3.14180546       0.70973445       0.32138069
H       -1.39701480      -0.07501886      -1.32695144
H       -0.86524512      -1.29704022      -0.20223692
H        4.23552663       0.20328261      -0.16513142
H        2.54813041      -0.11191413       0.76680985
H        3.28352830      -0.67589067      -1.50370500
15
Frame=6 idx=007298 GeodesicLength=0.35417477998343405 rxn_smarts="[C:1]([C:2]([C:3](=[O:4])[C:5]#[C:6][C:7]([H:13])([H:14])[H:15])([H:11])[H:12])([H:8])([H:9])[H:10]>>[C:1]([C:2]([C:3]([O-:4])=[C+:5][C:6](=[C:7]([H:13])[H:15])[H:14])([H:11])[H:12])([H:8])([H:9])[H:10]"
C       -2.70354200      -0.26999081       0.37604807
C       -1.31468638      -0.32022243      -0.23832621
C       -0.35101347       0.66352347       0.39236762
O       -0.61295474       1.32791532       1.37618916
C        0.89321720       0.86790501      -0.29530006
C        2.13257584       0.56187513      -0.15315174
C        3.27722666      -0.05479821      -0.61671944
H       -2.66999138      -0.49407143       1.44207004
H       -3.36146738      -0.99288306      -0.10801516
H       -3.13975234       0.72282030       0.26453732
H       -1.35858178      -0.12234226      -1.31358437
H       -0.86595852      -1.31471565      -0.14063584
H        4.24177589       0.21073685      -0.20185203
H        2.57896751      -0.16861286       0.76067428
H        3.25418488      -0.61713937      -1.54430164
15
Frame=7 idx=007298 GeodesicLength=0.4123258675218597 rxn_smarts="[C:1]([C:2]([C:3](=[O:4])[C:5]#[C:6][C:7]([H:13])([H:14])[H:15])([H:11])[H:12])([H:8])([H:9])[H:10]>>[C:1]([C:2]([C:3]([O-:4])=[C+:5][C:6](=[C:7]([H:13])[H:15])[H:14])([H:11])[H:12])([H:8])([H:9])[H:10]"
C       -2.71114622      -0.25831942       0.35853836
C       -1.30704686      -0.33607072      -0.21742177
C       -0.35120733       0.65468233       0.41281478
O       -0.62086366       1.32573023       1.38997764
C        0.89655573       0.86514295      -0.26724113
C        2.13754620       0.56395050      -0.12125990
C        3.27015233      -0.04586170      -0.62548836
H       -2.70729607      -0.45382912       1.43065350
H       -3.36261011      -0.98871911      -0.12297591
H       -3.13562513       0.73462872       0.20884076
H       -1.32159324      -0.16815341      -1.29856705
H       -0.86887353      -1.33069690      -0.08079857
H        4.24636138       0.22121821      -0.23919259
H        2.61110698      -0.22355011       0.75189750
H        3.22453953      -0.56015243      -1.57977725
15
Frame=8 idx=007298 GeodesicLength=0.470381063181009 rxn_smarts="[C:1]([C:2]([C:3](=[O:4])[C:5]#[C:6][C:7]([H:13])([H:14])[H:15])([H:11])[H:12])([H:8])([H:9])[H:10]>>[C:1]([C:2]([C:3]([O-:4])=[C+:5][C:6](=[C:7]([H:13])[H:15])[H:14])([H:11])[H:12])([H:8])([H:9])[H:10]"
C       -2.71741473      -0.24742236       0.34097586
C       -1.30001979      -0.35055579      -0.19750407
C       -0.35142188       0.64635157       0.43255843
O       -0.62801181       1.32281219       1.40398242
C        0.89995113       0.86248288      -0.23973585
C        2.14207923       0.56389224      -0.09007087
C        3.26229645      -0.03768801      -0.63366960
H       -2.74163026      -0.41563971       1.41741560
H       -3.36297927      -0.98475302      -0.13788517
H       -3.12968376       0.74471935       0.15557081
H       -1.28648528      -0.21085249      -1.28267439
H       -0.87319402      -1.34448921      -0.02461033
H        4.24892706       0.23398092      -0.27744294
H        2.64486526      -0.27428216       0.74181376
H        3.19272168      -0.50855639      -1.60872366
15
Frame=9 idx=007298 GeodesicLength=0.5280531107956574 rxn_smarts="[C:1]([C:2]([C:3](=[O:4])[C:5]#[C:6][C:7]([H:13])([H:14])[H:15])([H:11])[H:12])([H:8])([H:9])[H:10]>>[C:1]([C:2]([C:3]([O-:4])=[C+:5][C:6](=[C:7]([H:13])[H:15])[H:14])([H:11])[H:12])([H:8])([H:9])[H:10]"
C       -2.72290903      -0.23690189       0.32444249
C       -1.29434959      -0.36413337      -0.17837149
C       -0.35195102       0.63881301       0.45002756
O       -0.63427590       1.32113629       1.41559597
C        0.90338266       0.85811320      -0.21451684
C        2.14593185       0.55979269      -0.05969868
C        3.25538567      -0.02936295      -0.64075485
H       -2.77287043      -0.37775070       1.40391526
H       -3.36346163      -0.98120404      -0.15032092
H       -3.12279314       0.75335532       0.10458299
H       -1.25462778      -0.25207537      -1.26612608
H       -0.87952505      -1.35653877       0.02922168
H        4.24995728       0.24886486      -0.31171504
H        2.67792125      -0.32669360       0.72824794
H        3.16418485      -0.45541466      -1.63452999
15
Frame=10 idx=007298 GeodesicLength=0.5850432479473362 rxn_smarts="[C:1]([C:2]([C:3](=[O:4])[C:5]#[C:6][C:7]([H:13])([H:14])[H:15])([H:11])[H:12])([H:8])([H:9])[H:10]>>[C:1]([C:2]([C:3]([O-:4])=[C+:5][C:6](=[C:7]([H:13])[H:15])[H:14])([H:11])[H:12])([H:8])([H:9])[H:10]"
C       -2.72741904      -0.22713206       0.30843882
C       -1.28947139      -0.37627097      -0.16072046
C       -0.35258867       0.63181298       0.46620417
O       -0.63967064       1.31870090       1.42704964
C        0.90679007       0.85366339      -0.19057869
C        2.14934959       0.55396170      -0.03055412
C        3.24830374      -0.02185610      -0.64683325
H       -2.80101832      -0.34226655       1.38957344
H       -3.36360900      -0.97776188      -0.16209373
H       -3.11500498       0.76052494       0.05699401
H       -1.22531085      -0.28973073      -1.24962645
H       -0.88691466      -1.36659219       0.07848937
H        4.24926935       0.26599761      -0.34575016
H        2.71211406      -0.37475662       0.71391078
H        3.13518072      -0.40829441      -1.65450336
15
Frame=11 idx=007298 GeodesicLength=0.6418978179546782 rxn_smarts="[C:1]([C:2]([C:3](=[O:4])[C:5]#[C:6][C:7]([H:13])([H:14])[H:15])([H:11])[H:12])([H:8])([H:9])[H:10]>>[C:1]([C:2]([C:3]([O-:4])=[C+:5][C:6](=[C:7]([H:13])[H:15])[H:14])([H:11])[H:12])([H:8])([H:9])[H:10]"
C       -2.73122037      -0.21789738       0.29289958
C       -1.28536509      -0.38733986      -0.14424206
C       -0.35331350       0.62517961       0.48125900
O       -0.64426543       1.31573181       1.43823062
C        0.91018046       0.84895063      -0.16775040
C        2.15240234       0.54632501      -0.00249520
C        3.24124038      -0.01499750      -0.65204291
H       -2.82662136      -0.30850096       1.37462565
H       -3.36370570      -0.97432925      -0.17320632
H       -3.10656228       0.76659763       0.01203288
H       -1.19830811      -0.32468562      -1.23317516
H       -0.89530728      -1.37517171       0.12418760
H        4.24699754       0.28509180      -0.37904651
H        2.74778478      -0.41942298       0.69888259
H        3.10606361      -0.36553124      -1.67015936
15
Frame=12 idx=007298 GeodesicLength=0.6987358448381663 rxn_smarts="[C:1]([C:2]([C:3](=[O:4])[C:5]#[C:6][C:7]([H:13])([H:14])[H:15])([H:11])[H:12])([H:8])([H:9])[H:10]>>[C:1]([C:2]([C:3]([O-:4])=[C+:5][C:6](=[C:7]([H:13])[H:15])[H:14])([H:11])[H:12])([H:8])([H:9])[H:10]"
C       -2.73439835      -0.20903924       0.27748019
C       -1.28179243      -0.39755508      -0.12869420
C       -0.35401479       0.61865301       0.49583425
O       -0.64819380       1.31188803       1.44981348
C        0.91360157       0.84423433      -0.14536700
C        2.15522935       0.53734839       0.02472016
C        3.23396441      -0.00875081      -0.65662931
H       -2.85032966      -0.27628686       1.35889523
H       -3.36374785      -0.97068888      -0.18432589
H       -3.09730745       0.77193123      -0.03093836
H       -1.17289004      -0.35728675      -1.21672565
H       -0.90459675      -1.38264502       0.16691466
H        4.24299861       0.30636169      -0.41263973
H        2.78542969      -0.46037573       0.68368981
H        3.07604749      -0.32778830      -1.68202763
15
Frame=13 idx=007298 GeodesicLength=0.7551493152732851 rxn_smarts="[C:1]([C:2]([C:3](=[O:4])[C:5]#[C:6][C:7]([H:13])([H:14])[H:15])([H:11])[H:12])([H:8])([H:9])[H:10]>>[C:1]([C:2]([C:3]([O-:4])=[C+:5][C:6](=[C:7]([H:13])[H:15])[H:14])([H:11])[H:12])([H:8])([H:9])[H:10]"
C       -2.73721408      -0.20054170       0.26297820
C       -1.27916731      -0.40693647      -0.11429415
C       -0.35490641       0.61253843       0.50871929
O       -0.65135335       1.30814178       1.46019996
C        0.91696904       0.83865503      -0.12473724
C        2.15757983       0.52623103       0.05078752
C        3.22740873      -0.00259976      -0.66015298
H       -2.87166750      -0.24517255       1.34339446
H       -3.36412412      -0.96711739      -0.19389072
H       -3.08800831       0.77639952      -0.07131939
H       -1.15013328      -0.38787714      -1.20068938
H       -0.91482522      -1.38897184       0.20656928
H        4.23763094       0.32948782      -0.44376000
H        2.82382047      -0.49982346       0.66692116
H        3.04799056      -0.29241330      -1.69072602
15
Frame=14 idx=007298 GeodesicLength=0.8114236563122046 rxn_smarts="[C:1]([C:2]([C:3](=[O:4])[C:5]#[C:6][C:7]([H:13])([H:14])[H:15])([H:11])[H:12])([H:8])([H:9])[H:10]>>[C:1]([C:2]([C:3]([O-:4])=[C+:5][C:6](=[C:7]([H:13])[H:15])[H:14])([H:11])[H:12])([H:8])([H:9])[H:10]"
C       -2.73975444      -0.19228062       0.24904364
C       -1.27731038      -0.41561920      -0.10092238
C       -0.35586626       0.60652258       0.52053446
O       -0.65377742       1.30392204       1.47017743
C        0.92032612       0.83247074      -0.10523819
C        2.15961210       0.51344818       0.07585955
C        3.22130075       0.00326853      -0.66281969
H       -2.89116511      -0.21518436       1.32788061
H       -3.36488611      -0.96332900      -0.20265125
H       -3.07854753       0.78033204      -0.10953298
H       -1.12948381      -0.41653578      -1.18508280
H       -0.92592535      -1.39445404       0.24338514
H        4.23079061       0.35470973      -0.47362998
H        2.86388337      -0.53668021       0.64952439
H        3.02080345      -0.26059062      -1.69652795
15
Frame=15 idx=007298 GeodesicLength=0.8676752567771018 rxn_smarts="[C:1]([C:2]([C:3](=[O:4])[C:5]#[C:6][C:7]([H:13])([H:14])[H:15])([H:11])[H:12])([H:8])([H:9])[H:10]>>[C:1]([C:2]([C:3]([O-:4])=[C+:5][C:6](=[C:7]([H:13])[H:15])[H:14])([H:11])[H:12])([H:8])([H:9])[H:10]"
C       -2.74189286      -0.18426915       0.23535392
C       -1.27591809      -0.42344814      -0.08879526
C       -0.35679923       0.60043637       0.53187831
O       -0.65554217       1.29832283       1.48083621
C        0.92364911       0.82633873      -0.08618650
C        2.16144951       0.50000850       0.10005390
C        3.21505966       0.00840891      -0.66471841
H       -2.90894048      -0.18699232       1.31210547
H       -3.36575802      -0.95907827      -0.21156837
H       -3.06883898       0.78400277      -0.14542359
H       -1.11043374      -0.44250281      -1.17022588
H       -0.93749775      -1.39919295       0.27668401
H        4.22197434       0.38189065      -0.50410172
H        2.90667913      -0.56872801       0.63319157
H        2.99280958      -0.23519711      -1.69908365
15
Frame=16 idx=007298 GeodesicLength=0.923901227423797 rxn_smarts="[C:1]([C:2]([C:3](=[O:4])[C:5]#[C:6][C:7]([H:13])([H:14])[H:15])([H:11])[H:12])([H:8])([H:9])[H:10]>>[C:1]([C:2]([C:3]([O-:4])=[C+:5][C:6](=[C:7]([H:13])[H:15])[H:14])([H:11])[H:12])([H:8])([H:9])[H:10]"
C       -2.74394474      -0.17607463       0.22186611
C       -1.27520375      -0.43111469      -0.07710067
C       -0.35772638       0.59387195       0.54283407
O       -0.65675080       1.29205345       1.49142055
C        0.92695628       0.81917864      -0.06766089
C        2.16301214       0.48465089       0.12355738
C        3.20934948       0.01371482      -0.66609846
H       -2.92580927      -0.15886805       1.29606383
H       -3.36720402      -0.95416083      -0.22011364
H       -3.05861990       0.78764568      -0.18032314
H       -1.09275111      -0.46781021      -1.15533204
H       -0.95026709      -1.40368359       0.30857891
H        4.21138204       0.41163554      -0.53368430
H        2.95181135      -0.59869206       0.61574605
H        2.96576579      -0.21234692      -1.69975376
