14
Frame=0 idx=005371 GeodesicLength=0.0 rxn_smarts="[C:1]([C:2]#[C:3][C:4]([C:5]([O:6][H:14])([H:12])[H:13])([H:10])[H:11])([H:7])([H:8])[H:9]>>[C:1]([C:2]#[C:3][O:6][H:14])([H:7])([H:8])[H:9].[C:4](=[C:5]([H:12])[H:13])([H:10])[H:11]"
C        2.46261509       0.20019595      -0.31301532
C        1.15452770       0.73003957       0.11733056
C       -0.06350693       0.40044497       0.03913537
C       -0.99891063      -0.81867775      -0.42916990
C       -2.15392311      -0.39984374       0.32896129
O       -1.13349974       1.19586678       0.61613584
H        3.15059064       0.11749759       0.53149883
H        2.39420026      -0.78944258      -0.78648963
H        2.93292405       0.87622265      -1.03109575
H       -1.13866879      -0.79489411      -1.50773130
H       -0.54476045      -1.75188596      -0.10662500
H       -3.00211682       0.07793455      -0.14026903
H       -2.30902367      -0.76625955       1.33593300
H       -0.75044762       1.72280161       1.34540098
14
Frame=1 idx=005371 GeodesicLength=0.10687971931156601 rxn_smarts="[C:1]([C:2]#[C:3][C:4]([C:5]([O:6][H:14])([H:12])[H:13])([H:10])[H:11])([H:7])([H:8])[H:9]>>[C:1]([C:2]#[C:3][O:6][H:14])([H:7])([H:8])[H:9].[C:4](=[C:5]([H:12])[H:13])([H:10])[H:11]"
C        2.48451868       0.20547798      -0.31601353
C        1.16676869       0.73127086       0.08524849
C       -0.05105907       0.41615418       0.00971276
C       -1.01756272      -0.82201351      -0.42613804
C       -2.16323763      -0.38614189       0.33477186
O       -1.13932631       1.21972886       0.59495003
H        3.15602404       0.13110560       0.54235052
H        2.42893387      -0.78725486      -0.78348289
H        2.96437807       0.87903371      -1.02996759
H       -1.16494739      -0.81043510      -1.50405739
H       -0.56509691      -1.75311640      -0.09492454
H       -3.01857652       0.07338389      -0.14039278
H       -2.31612990      -0.75236607       1.34263483
H       -0.76468688       1.65517275       1.38530828
14
Frame=2 idx=005371 GeodesicLength=0.21387464343707357 rxn_smarts="[C:1]([C:2]#[C:3][C:4]([C:5]([O:6][H:14])([H:12])[H:13])([H:10])[H:11])([H:7])([H:8])[H:9]>>[C:1]([C:2]#[C:3][O:6][H:14])([H:7])([H:8])[H:9].[C:4](=[C:5]([H:12])[H:13])([H:10])[H:11]"
C        2.50651072       0.21032980      -0.31774858
C        1.17908994       0.73258706       0.05114441
C       -0.03844652       0.43139609      -0.01850546
C       -1.03693009      -0.82349485      -0.42502051
C       -2.17241620      -0.37348779       0.34129776
O       -1.14418403       1.24067122       0.58140188
H        3.16218995       0.15300506       0.55395502
H        2.46483229      -0.78942277      -0.77026457
H        2.99398496       0.87613420      -1.03367914
H       -1.19298718      -0.81944700      -1.50195644
H       -0.58559643      -1.75368197      -0.08931978
H       -3.03523999       0.06986149      -0.13653617
H       -2.32244860      -0.74390947       1.34856802
H       -0.77835880       1.58945891       1.41666357
14
Frame=3 idx=005371 GeodesicLength=0.3205442641497668 rxn_smarts="[C:1]([C:2]#[C:3][C:4]([C:5]([O:6][H:14])([H:12])[H:13])([H:10])[H:11])([H:7])([H:8])[H:9]>>[C:1]([C:2]#[C:3][O:6][H:14])([H:7])([H:8])[H:9].[C:4](=[C:5]([H:12])[H:13])([H:10])[H:11]"
C        2.52918933       0.21581969      -0.32090093
C        1.19288316       0.72927183       0.02318332
C       -0.02440575       0.44317209      -0.04120429
C       -1.05612151      -0.82639621      -0.42053154
C       -2.18301675      -0.36034677       0.34691781
O       -1.14802000       1.25989087       0.57088675
H        3.17079466       0.16865921       0.56174196
H        2.50135370      -0.78681264      -0.76681885
H        3.02189107       0.88074877      -1.03393504
H       -1.21710803      -0.82953532      -1.49670372
H       -0.60856351      -1.75601639      -0.07862382
H       -3.05075308       0.06806651      -0.13601412
H       -2.33454577      -0.73460935       1.35291169
H       -0.79357751       1.52808770       1.43909077
14
Frame=4 idx=005371 GeodesicLength=0.4274364524446716 rxn_smarts="[C:1]([C:2]#[C:3][C:4]([C:5]([O:6][H:14])([H:12])[H:13])([H:10])[H:11])([H:7])([H:8])[H:9]>>[C:1]([C:2]#[C:3][O:6][H:14])([H:7])([H:8])[H:9].[C:4](=[C:5]([H:12])[H:13])([H:10])[H:11]"
C        2.55171763       0.22078174      -0.32198254
C        1.20607552       0.72795306      -0.01098388
C       -0.01083609       0.45592931      -0.06518801
C       -1.07658350      -0.82681299      -0.41999048
C       -2.19304297      -0.34881394       0.35365986
O       -1.15133939       1.27686797       0.56696630
H        3.17881292       0.19849042       0.57191145
H        2.53913349      -0.79123434      -0.74554189
H        3.04879923       0.87457576      -1.04209800
H       -1.24525441      -0.83181304      -1.49505476
H       -0.63108143      -1.75716430      -0.07733935
H       -3.06728842       0.06646207      -0.12973538
H       -2.34331075      -0.73164031       1.35709866
H       -0.80580183       1.46641858       1.45827803
14
Frame=5 idx=005371 GeodesicLength=0.5344256148446842 rxn_smarts="[C:1]([C:2]#[C:3][C:4]([C:5]([O:6][H:14])([H:12])[H:13])([H:10])[H:11])([H:7])([H:8])[H:9]>>[C:1]([C:2]#[C:3][O:6][H:14])([H:7])([H:8])[H:9].[C:4](=[C:5]([H:12])[H:13])([H:10])[H:11]"
C        2.57483328       0.22621325      -0.32400382
C        1.22024902       0.72320271      -0.04164148
C        0.00379457       0.46624764      -0.08545292
C       -1.09716280      -0.82832242      -0.41739529
C       -2.20416198      -0.33705632       0.35978926
O       -1.15400887       1.29279490       0.56529902
H        3.18823936       0.22493681       0.57951166
H        2.57782435      -0.79249099      -0.73002140
H        3.07475895       0.87305103      -1.04826545
H       -1.27096241      -0.83468349      -1.49168794
H       -0.65541180      -1.75978074      -0.07289993
H       -3.08328457       0.06607717      -0.12570742
H       -2.35603924      -0.72813327       1.36029475
H       -0.81866787       1.40794372       1.47218095
14
Frame=6 idx=005371 GeodesicLength=0.6414687278476967 rxn_smarts="[C:1]([C:2]#[C:3][C:4]([C:5]([O:6][H:14])([H:12])[H:13])([H:10])[H:11])([H:7])([H:8])[H:9]>>[C:1]([C:2]#[C:3][O:6][H:14])([H:7])([H:8])[H:9].[C:4](=[C:5]([H:12])[H:13])([H:10])[H:11]"
C        2.59810419       0.23166345      -0.32512902
C        1.23443462       0.71796767      -0.07507752
C        0.01852929       0.47627432      -0.10556595
C       -1.11875031      -0.82887956      -0.41647167
C       -2.21540119      -0.32612527       0.36637218
O       -1.15602523       1.30707801       0.56785044
H        3.19751734       0.25926407       0.58722784
H        2.61771329      -0.79621517      -0.70537554
H        3.10011338       0.86649436      -1.05837743
H       -1.29840279      -0.83342733      -1.48987449
H       -0.68044428      -1.76229374      -0.07283201
H       -3.09976708       0.06626982      -0.11916054
H       -2.36820468      -0.72775299       1.36307994
H       -0.82941655       1.34968236       1.48333377
14
Frame=7 idx=005371 GeodesicLength=0.7486050358221785 rxn_smarts="[C:1]([C:2]#[C:3][C:4]([C:5]([O:6][H:14])([H:12])[H:13])([H:10])[H:11])([H:7])([H:8])[H:9]>>[C:1]([C:2]#[C:3][O:6][H:14])([H:7])([H:8])[H:9].[C:4](=[C:5]([H:12])[H:13])([H:10])[H:11]"
C        2.62197544       0.23746493      -0.32670399
C        1.24931804       0.70989785      -0.10701683
C        0.03407734       0.48450519      -0.12343003
C       -1.14083273      -0.83007086      -0.41454973
C       -2.22749840      -0.31522266       0.37272976
O       -1.15753277       1.32036935       0.57234192
H        3.20741567       0.29267369       0.59335582
H        2.65897042      -0.79792905      -0.68306287
H        3.12513945       0.86233161      -1.06754251
H       -1.32480467      -0.83190976      -1.48728026
H       -0.70700720      -1.76578362      -0.07148571
H       -3.11622943       0.06726322      -0.11351302
H       -2.38282454      -0.72727778       1.36533530
H       -0.84016662       1.29368787       1.49082214
14
Frame=8 idx=005371 GeodesicLength=0.8558328397327892 rxn_smarts="[C:1]([C:2]#[C:3][C:4]([C:5]([O:6][H:14])([H:12])[H:13])([H:10])[H:11])([H:7])([H:8])[H:9]>>[C:1]([C:2]#[C:3][O:6][H:14])([H:7])([H:8])[H:9].[C:4](=[C:5]([H:12])[H:13])([H:10])[H:11]"
C        2.64637097       0.24354766      -0.32833537
C        1.26468028       0.69937042      -0.13887417
C        0.05026445       0.49133055      -0.13995643
C       -1.16367559      -0.83153480      -0.41242784
C       -2.24021926      -0.30453911       0.37913818
O       -1.15849579       1.33261965       0.57891176
H        3.21737240       0.32733599       0.59852693
H        2.70184866      -0.79860947      -0.66019879
H        3.15002799       0.85877772      -1.07673105
H       -1.35117714      -0.82928294      -1.48459890
H       -0.73495979      -1.76998420      -0.07041640
H       -3.13291267       0.06890185      -0.10769312
H       -2.39878343      -0.72727751       1.36731151
H       -0.85034107       1.23934420       1.49534369
14
Frame=9 idx=005371 GeodesicLength=0.9630934774567592 rxn_smarts="[C:1]([C:2]#[C:3][C:4]([C:5]([O:6][H:14])([H:12])[H:13])([H:10])[H:11])([H:7])([H:8])[H:9]>>[C:1]([C:2]#[C:3][O:6][H:14])([H:7])([H:8])[H:9].[C:4](=[C:5]([H:12])[H:13])([H:10])[H:11]"
C        2.67115562       0.24988509      -0.32957679
C        1.28034599       0.68654052      -0.17188409
C        0.06699723       0.49708912      -0.15587780
C       -1.18757195      -0.83276678      -0.41107219
C       -2.25331324      -0.29426853       0.38581116
O       -1.15867575       1.34356438       0.58810441
H        3.22707536       0.36682772       0.60276346
H        2.74649468      -0.79933036      -0.63235739
H        3.17456448       0.85305041      -1.08775778
H       -1.37849832      -0.82419675      -1.48263838
H       -0.76433606      -1.77461480      -0.07162957
H       -3.14997081       0.07124787      -0.10058775
H       -2.41505083      -0.72860255       1.36902532
H       -0.85921640       1.18557465       1.49767739
14
Frame=10 idx=005371 GeodesicLength=1.0704679704508115 rxn_smarts="[C:1]([C:2]#[C:3][C:4]([C:5]([O:6][H:14])([H:12])[H:13])([H:10])[H:11])([H:7])([H:8])[H:9]>>[C:1]([C:2]#[C:3][O:6][H:14])([H:7])([H:8])[H:9].[C:4](=[C:5]([H:12])[H:13])([H:10])[H:11]"
C        2.69670878       0.25660057      -0.33122291
C        1.29672930       0.66999443      -0.20358700
C        0.08470971       0.50078859      -0.17001176
C       -1.21225579      -0.83473839      -0.40887009
C       -2.26725053      -0.28391687       0.39237556
O       -1.15834785       1.35370731       0.59828524
H        3.23687912       0.40503132       0.60579295
H        2.79347463      -0.79767096      -0.60738853
H        3.19898748       0.85041946      -1.09735305
H       -1.40520059      -0.81912623      -1.48002566
H       -0.79556493      -1.78027412      -0.07164096
H       -3.16724022       0.07430305      -0.09416752
H       -2.43329869      -0.72916505       1.37060182
H       -0.86833042       1.13404690       1.49721190
14
Frame=11 idx=005371 GeodesicLength=1.177909217121587 rxn_smarts="[C:1]([C:2]#[C:3][C:4]([C:5]([O:6][H:14])([H:12])[H:13])([H:10])[H:11])([H:7])([H:8])[H:9]>>[C:1]([C:2]#[C:3][O:6][H:14])([H:7])([H:8])[H:9].[C:4](=[C:5]([H:12])[H:13])([H:10])[H:11]"
C        2.72296050       0.26369651      -0.33287659
C        1.31372090       0.64961047      -0.23488801
C        0.10337216       0.50255681      -0.18285022
C       -1.23805272      -0.83696922      -0.40674818
C       -2.28184095      -0.27362247       0.39898523
O       -1.15725287       1.36273662       0.61008879
H        3.24668931       0.44563739       0.60747526
H        2.84317234      -0.79463037      -0.58094439
H        3.22283679       0.84823909      -1.10753184
H       -1.43216485      -0.81270742      -1.47754969
H       -0.82883602      -1.78675473      -0.07239852
H       -3.18485997       0.07826682      -0.08745353
H       -2.45268307      -0.72977245       1.37199126
H       -0.87706155       1.08371297       1.49470042
14
Frame=12 idx=005371 GeodesicLength=1.285477241797155 rxn_smarts="[C:1]([C:2]#[C:3][C:4]([C:5]([O:6][H:14])([H:12])[H:13])([H:10])[H:11])([H:7])([H:8])[H:9]>>[C:1]([C:2]#[C:3][O:6][H:14])([H:7])([H:8])[H:9].[C:4](=[C:5]([H:12])[H:13])([H:10])[H:11]"
C        2.75013666       0.27122328      -0.33499127
C        1.33159128       0.62436207      -0.26431976
C        0.12332951       0.50169948      -0.19366528
C       -1.26482943      -0.83999552      -0.40379076
C       -2.29735610      -0.26305179       0.40538715
O       -1.15556376       1.37097954       0.62245544
H        3.25665238       0.48500443       0.60802889
H        2.89624814      -0.78899767      -0.55780481
H        3.24597869       0.84989334      -1.11652962
H       -1.45846017      -0.80637436      -1.47443624
H       -0.86443170      -1.79434515      -0.07188001
H       -3.20276249       0.08315088      -0.08160867
H       -2.47414445      -0.72912610       1.37327905
H       -0.88638856       1.03557755       1.48987589
14
Frame=13 idx=005371 GeodesicLength=1.3931378594454487 rxn_smarts="[C:1]([C:2]#[C:3][C:4]([C:5]([O:6][H:14])([H:12])[H:13])([H:10])[H:11])([H:7])([H:8])[H:9]>>[C:1]([C:2]#[C:3][O:6][H:14])([H:7])([H:8])[H:9].[C:4](=[C:5]([H:12])[H:13])([H:10])[H:11]"
C        2.77819382       0.27927204      -0.33719032
C        1.35035665       0.59375472      -0.29205086
C        0.14470438       0.49815696      -0.20233611
C       -1.29297480      -0.84311513      -0.40122002
C       -2.31367664      -0.25232747       0.41154932
O       -1.15280787       1.37778131       0.63688529
H        3.26740165       0.52928011       0.60595763
H        2.95320169      -0.78172309      -0.53114296
H        3.26713729       0.85083426      -1.12809005
H       -1.48480825      -0.79799280      -1.47176329
H       -0.90286438      -1.80284766      -0.07272604
H       -3.22099239       0.08960714      -0.07584053
H       -2.49719364      -0.72847913       1.37394950
H       -0.89567751       0.98779873       1.48401844
14
Frame=14 idx=005371 GeodesicLength=1.5009585483432182 rxn_smarts="[C:1]([C:2]#[C:3][C:4]([C:5]([O:6][H:14])([H:12])[H:13])([H:10])[H:11])([H:7])([H:8])[H:9]>>[C:1]([C:2]#[C:3][O:6][H:14])([H:7])([H:8])[H:9].[C:4](=[C:5]([H:12])[H:13])([H:10])[H:11]"
C        2.80735893       0.28786384      -0.34013329
C        1.37040881       0.55643663      -0.31592453
C        0.16797520       0.49091775      -0.20778814
C       -1.32217796      -0.84716728      -0.39757974
C       -2.33115667      -0.24093643       0.41707043
O       -1.14933804       1.38373682       0.65167999
H        3.27895935       0.57221016       0.60218221
H        3.01492158      -0.77106099      -0.50903075
H        3.28600816       0.85667573      -1.13915108
H       -1.50969735      -0.78996934      -1.46830255
H       -0.94434253      -1.81262650      -0.07167797
H       -3.23939425       0.09755021      -0.07196724
H       -2.52318864      -0.72578811       1.37415613
H       -0.90633658       0.94215751       1.47646654
14
Frame=15 idx=005371 GeodesicLength=1.6088996938624291 rxn_smarts="[C:1]([C:2]#[C:3][C:4]([C:5]([O:6][H:14])([H:12])[H:13])([H:10])[H:11])([H:7])([H:8])[H:9]>>[C:1]([C:2]#[C:3][O:6][H:14])([H:7])([H:8])[H:9].[C:4](=[C:5]([H:12])[H:13])([H:10])[H:11]"
C        2.83756663       0.29710241      -0.34375418
C        1.39199209       0.51158252      -0.33459034
C        0.19351672       0.47958798      -0.20893201
C       -1.35259189      -0.85156843      -0.39371701
C       -2.34979465      -0.22887040       0.42164291
O       -1.14480814       1.38820461       0.66835768
H        3.29239009       0.61896023       0.59463715
H        3.08195183      -0.75730830      -0.48635929
H        3.30064039       0.86348279      -1.15344497
H       -1.53297314      -0.78055657      -1.46481901
H       -0.98940525      -1.82350199      -0.07059793
H       -3.25782889       0.10772599      -0.07004273
H       -2.55233123      -0.72191750       1.37308134
H       -0.91832458       0.89707666       1.46853840
14
Frame=16 idx=005371 GeodesicLength=1.7169375972140861 rxn_smarts="[C:1]([C:2]#[C:3][C:4]([C:5]([O:6][H:14])([H:12])[H:13])([H:10])[H:11])([H:7])([H:8])[H:9]>>[C:1]([C:2]#[C:3][O:6][H:14])([H:7])([H:8])[H:9].[C:4](=[C:5]([H:12])[H:13])([H:10])[H:11]"
C        2.86866319       0.30694049      -0.34851029
C        1.41554516       0.45825032      -0.34545671
C        0.22187100       0.46338881      -0.20425029
C       -1.38378184      -0.85665672      -0.38889705
C       -2.36970584      -0.21577709       0.42473615
O       -1.13950247       1.39149159       0.68625828
H        3.30811811       0.66653421       0.58339591
H        3.15467252      -0.73938994      -0.46764069
H        3.30945237       0.87368997      -1.17014503
H       -1.55306714      -0.77091585      -1.46070315
H       -1.03802969      -1.83551817      -0.06777799
H       -3.27596279       0.12018721      -0.07162904
H       -2.58555721      -0.71569343       1.37038487
H       -0.93271538       0.85346860       1.46023503
