16
Frame=0 idx=010976 GeodesicLength=0.0 rxn_smarts="[C:1]([C@@:2]1([H:11])[N:3]2[C:4]([H:12])([H:13])[C:5]1([O:6][H:14])[C:7]2([H:15])[H:16])([H:8])([H:9])[H:10]>>[C:1]([C@@:2]1([H:11])[N:3]([C:4]([H:12])([H:13])[H:14])[C:7]([H:15])([H:16])[C:5]1=[O:6])([H:8])([H:9])[H:10]"
C        1.82797689       0.17819381       0.61732012
C        0.76679910      -0.09046094      -0.41767968
N       -0.27837528      -1.16601965      -0.17265000
C       -0.95890287      -0.38332326       0.90200764
C       -0.52918014       0.73009686      -0.53143666
O       -0.85489251       1.98579375      -0.39259175
C       -1.10890437      -0.50036485      -1.23939295
H        2.38918416      -0.73406510       0.82724704
H        2.52496737       0.92126042       0.22835222
H        1.42917983       0.56570914       1.55371088
H        1.22334290      -0.24939552      -1.39838151
H       -0.41138897      -0.36715388       1.84077936
H       -1.99815207      -0.68192787       1.03587725
H       -1.11388576       1.16118116       0.56249622
H       -0.73069692      -0.67164039      -2.24750718
H       -2.17707134      -0.69788369      -1.16815100
16
Frame=1 idx=010976 GeodesicLength=0.10029683684177094 rxn_smarts="[C:1]([C@@:2]1([H:11])[N:3]2[C:4]([H:12])([H:13])[C:5]1([O:6][H:14])[C:7]2([H:15])[H:16])([H:8])([H:9])[H:10]>>[C:1]([C@@:2]1([H:11])[N:3]([C:4]([H:12])([H:13])[H:14])[C:7]([H:15])([H:16])[C:5]1=[O:6])([H:8])([H:9])[H:10]"
C        1.82595676       0.18358256       0.61670382
C        0.76929139      -0.09439786      -0.42103149
N       -0.28061746      -1.16385971      -0.17533416
C       -0.95960405      -0.38785507       0.90453552
C       -0.52199905       0.73188755      -0.54290998
O       -0.84479856       1.98652207      -0.39940630
C       -1.10962349      -0.49825878      -1.24248487
H        2.38300207      -0.72762996       0.84137849
H        2.52652177       0.92125367       0.22369413
H        1.42469877       0.58488851       1.54631331
H        1.23317547      -0.25930200      -1.39737489
H       -0.41208499      -0.38849444       1.84361597
H       -1.99605420      -0.69578399       1.04033927
H       -1.11562100       1.16516957       0.58314519
H       -0.74156372      -0.67723688      -2.25296727
H       -2.18067970      -0.68048524      -1.16821674
16
Frame=2 idx=010976 GeodesicLength=0.2004717454289033 rxn_smarts="[C:1]([C@@:2]1([H:11])[N:3]2[C:4]([H:12])([H:13])[C:5]1([O:6][H:14])[C:7]2([H:15])[H:16])([H:8])([H:9])[H:10]>>[C:1]([C@@:2]1([H:11])[N:3]([C:4]([H:12])([H:13])[H:14])[C:7]([H:15])([H:16])[C:5]1=[O:6])([H:8])([H:9])[H:10]"
C        1.82387863       0.18900951       0.61606482
C        0.77184433      -0.09834693      -0.42441777
N       -0.28287601      -1.16155970      -0.17798983
C       -0.96030485      -0.39224153       0.90703577
C       -0.51455730       0.73370520      -0.55491660
O       -0.83475327       1.98712331      -0.40617040
C       -1.11034545      -0.49614152      -1.24561961
H        2.37671371      -0.72094097       0.85543644
H        2.52802803       0.92129743       0.21919815
H        1.42011650       0.60387214       1.53871915
H        1.24315528      -0.26951126      -1.39620024
H       -0.41281850      -0.40987737       1.84616666
H       -1.99382679      -0.70969131       1.04469035
H       -1.11749674       1.16926761       0.60455866
H       -0.75267411      -0.68305360      -2.25835154
H       -2.18408345      -0.66291101      -1.16820401
16
Frame=3 idx=010976 GeodesicLength=0.3005616356071273 rxn_smarts="[C:1]([C@@:2]1([H:11])[N:3]2[C:4]([H:12])([H:13])[C:5]1([O:6][H:14])[C:7]2([H:15])[H:16])([H:8])([H:9])[H:10]>>[C:1]([C@@:2]1([H:11])[N:3]([C:4]([H:12])([H:13])[H:14])[C:7]([H:15])([H:16])[C:5]1=[O:6])([H:8])([H:9])[H:10]"
C        1.82174333       0.19447830       0.61539692
C        0.77446230      -0.10231123      -0.42784258
N       -0.28515085      -1.15911297      -0.18062023
C       -0.96100825      -0.39647132       0.90950086
C       -0.50683510       0.73554381      -0.56749763
O       -0.82477338       1.98757414      -0.41285171
C       -1.11106599      -0.49401355      -1.24880701
H        2.37031076      -0.71399918       0.86942606
H        2.52949398       0.92138749       0.21485022
H        1.41543824       0.62268303       1.53092039
H        1.25329011      -0.28004128      -1.39484871
H       -0.41360288      -0.43129229       1.84841818
H       -1.99146979      -0.72363191       1.04891461
H       -1.11952737       1.17346898       0.62682529
H       -0.76403257      -0.68910422      -2.26365827
H       -2.18727254      -0.64515779      -1.16812641
16
Frame=4 idx=010976 GeodesicLength=0.4006250200259904 rxn_smarts="[C:1]([C@@:2]1([H:11])[N:3]2[C:4]([H:12])([H:13])[C:5]1([O:6][H:14])[C:7]2([H:15])[H:16])([H:8])([H:9])[H:10]>>[C:1]([C@@:2]1([H:11])[N:3]([C:4]([H:12])([H:13])[H:14])[C:7]([H:15])([H:16])[C:5]1=[O:6])([H:8])([H:9])[H:10]"
C        1.81955161       0.19999285       0.61469196
C        0.77715072      -0.10629450      -0.43131198
N       -0.28744166      -1.15651186      -0.18322971
C       -0.96171699      -0.40053092       0.91192095
C       -0.49880823       0.73739655      -0.58070335
O       -0.81488071       1.98784201      -0.41940929
C       -1.11177993      -0.49187587      -1.25205909
H        2.36378318      -0.70680074       0.88335417
H        2.53092889       0.92151688       0.21063595
H        1.41066847       0.64134561       1.52290369
H        1.26358869      -0.29091423      -1.39330709
H       -0.41445093      -0.45272410       1.85035487
H       -1.98898435      -0.73758325       1.05299255
H       -1.12172944       1.17776709       0.65005338
H       -0.77564570      -0.69540613      -2.26888589
H       -2.19023359      -0.62721938      -1.16800110
16
Frame=5 idx=010976 GeodesicLength=0.5006803522268238 rxn_smarts="[C:1]([C@@:2]1([H:11])[N:3]2[C:4]([H:12])([H:13])[C:5]1([O:6][H:14])[C:7]2([H:15])[H:16])([H:8])([H:9])[H:10]>>[C:1]([C@@:2]1([H:11])[N:3]([C:4]([H:12])([H:13])[H:14])[C:7]([H:15])([H:16])[C:5]1=[O:6])([H:8])([H:9])[H:10]"
C        1.81730359       0.20555865       0.61394161
C        0.77991431      -0.11029932      -0.43483185
N       -0.28974823      -1.15374793      -0.18582290
C       -0.96243379      -0.40440813       0.91428750
C       -0.49045407       0.73925667      -0.59458184
O       -0.80509491       1.98789261      -0.42580723
C       -1.11248212      -0.48972762      -1.25538744
H        2.35712073      -0.69934510       0.89722597
H        2.53234172       0.92168036       0.20654063
H        1.40581048       0.65988316       1.51465740
H        1.27405965      -0.30215062      -1.39156215
H       -0.41537484      -0.47415740       1.85196264
H       -1.98637152      -0.75152169       1.05690651
H       -1.12411854       1.18215169       0.67434785
H       -0.78751737      -0.70197413      -2.27403343
H       -2.19295508      -0.60909120      -1.16784328
16
Frame=6 idx=010976 GeodesicLength=0.60077092731461 rxn_smarts="[C:1]([C@@:2]1([H:11])[N:3]2[C:4]([H:12])([H:13])[C:5]1([O:6][H:14])[C:7]2([H:15])[H:16])([H:8])([H:9])[H:10]>>[C:1]([C@@:2]1([H:11])[N:3]([C:4]([H:12])([H:13])[H:14])[C:7]([H:15])([H:16])[C:5]1=[O:6])([H:8])([H:9])[H:10]"
C        1.81499945       0.21118166       0.61313724
C        0.78275862      -0.11432837      -0.43840846
N       -0.29207033      -1.15081103      -0.18840480
C       -0.96316159      -0.40808624       0.91659043
C       -0.48174503       0.74111640      -0.60918905
O       -0.79543681       1.98768724      -0.43200751
C       -1.11316585      -0.48756794      -1.25880581
H        2.35031045      -0.69162374       0.91104891
H        2.53374209       0.92186968       0.20254952
H        1.40086887       0.67832308       1.50616235
H        1.28471190      -0.31377535      -1.38959967
H       -0.41638900      -0.49557898       1.85322591
H       -1.98363470      -0.76541995       1.06063656
H       -1.12671108       1.18660499       0.69983543
H       -0.79965620      -0.70882662      -2.27909794
H       -2.19542079      -0.59076484      -1.16767310
16
Frame=7 idx=010976 GeodesicLength=0.7009212712599022 rxn_smarts="[C:1]([C@@:2]1([H:11])[N:3]2[C:4]([H:12])([H:13])[C:5]1([O:6][H:14])[C:7]2([H:15])[H:16])([H:8])([H:9])[H:10]>>[C:1]([C@@:2]1([H:11])[N:3]([C:4]([H:12])([H:13])[H:14])[C:7]([H:15])([H:16])[C:5]1=[O:6])([H:8])([H:9])[H:10]"
C        1.81263867       0.21686847       0.61226962
C        0.78568841      -0.11838372      -0.44204903
N       -0.29440827      -1.14769026      -0.19098147
C       -0.96390371      -0.41155088       0.91881953
C       -0.47265348       0.74296653      -0.62458340
O       -0.78592513       1.98717879      -0.43797804
C       -1.11382468      -0.48539519      -1.26232861
H        2.34333956      -0.68362898       0.92482989
H        2.53513882       0.92208143       0.19864675
H        1.39584477       0.69669091       1.49740488
H        1.29555453      -0.32581183      -1.38740559
H       -0.41750617      -0.51697159       1.85412959
H       -1.98077858      -0.77924800       1.06416209
H       -1.12951699       1.19110600       0.72665059
H       -0.81206837      -0.71598060      -2.28407762
H       -2.19761939      -0.57223110      -1.16750918
16
Frame=8 idx=010976 GeodesicLength=0.801151738139696 rxn_smarts="[C:1]([C@@:2]1([H:11])[N:3]2[C:4]([H:12])([H:13])[C:5]1([O:6][H:14])[C:7]2([H:15])[H:16])([H:8])([H:9])[H:10]>>[C:1]([C@@:2]1([H:11])[N:3]([C:4]([H:12])([H:13])[H:14])[C:7]([H:15])([H:16])[C:5]1=[O:6])([H:8])([H:9])[H:10]"
C        1.81022047       0.22262699       0.61132791
C        0.78870854      -0.12246554      -0.44576194
N       -0.29676229      -1.14437185      -0.19355981
C       -0.96466317      -0.41478439       0.92096438
C       -0.46314877       0.74479906      -0.64082823
O       -0.77657928       1.98630962      -0.44368583
C       -1.11445093      -0.48320496      -1.26597153
H        2.33619272      -0.67535075       0.93857424
H        2.53654081       0.92230987       0.19481759
H        1.39074112       0.71501296       1.48836396
H        1.30659556      -0.33828452      -1.38495947
H       -0.41874070      -0.53831809       1.85465746
H       -1.97780939      -0.79297197       1.06746149
H       -1.13254848       1.19562960       0.75494132
H       -0.82476390      -0.72345472      -2.28896608
H       -2.19953231      -0.55348130      -1.16737546
16
Frame=9 idx=010976 GeodesicLength=0.9014468913333917 rxn_smarts="[C:1]([C@@:2]1([H:11])[N:3]2[C:4]([H:12])([H:13])[C:5]1([O:6][H:14])[C:7]2([H:15])[H:16])([H:8])([H:9])[H:10]>>[C:1]([C@@:2]1([H:11])[N:3]([C:4]([H:12])([H:13])[H:14])[C:7]([H:15])([H:16])[C:5]1=[O:6])([H:8])([H:9])[H:10]"
C        1.80774390       0.22846514       0.61030179
C        0.79182315      -0.12657186      -0.44955675
N       -0.29913321      -1.14083947      -0.19614708
C       -0.96544401      -0.41776730       0.92301540
C       -0.45320037       0.74660714      -0.65798873
O       -0.76741438       1.98500815      -0.44909600
C       -1.11503615      -0.48099007      -1.26975097
H        2.32885544      -0.66678026       0.95228295
H        2.53795512       0.92255353       0.19104585
H        1.38555856       0.73331263       1.47902488
H        1.31784316      -0.35121854      -1.38224465
H       -0.42010587      -0.55959911       1.85479508
H       -1.97473479      -0.80655620       1.07051393
H       -1.13581927       1.20015166       0.78485487
H       -0.83774690      -0.73126855      -2.29375764
H       -2.20114437      -0.53450689      -1.16729294
16
Frame=10 idx=010976 GeodesicLength=1.0018201743377924 rxn_smarts="[C:1]([C@@:2]1([H:11])[N:3]2[C:4]([H:12])([H:13])[C:5]1([O:6][H:14])[C:7]2([H:15])[H:16])([H:8])([H:9])[H:10]>>[C:1]([C@@:2]1([H:11])[N:3]([C:4]([H:12])([H:13])[H:14])[C:7]([H:15])([H:16])[C:5]1=[O:6])([H:8])([H:9])[H:10]"
C        1.80520580       0.23439416       0.60918028
C        0.79503649      -0.13070321      -0.45344068
N       -0.30152190      -1.13707753      -0.19874880
C       -0.96624975      -0.42048076       0.92496378
C       -0.44277557       0.74837667      -0.67612992
O       -0.75844227       1.98322086      -0.45420246
C       -1.11557160      -0.47874641      -1.27368307
H        2.32131039      -0.65789932       0.96596103
H        2.53938881       0.92280793       0.18731952
H        1.38029763       0.75162006       1.46935982
H        1.32930299      -0.36463801      -1.37923430
H       -0.42161792      -0.58079836       1.85452580
H       -1.97156501      -0.81996279       1.07329739
H       -1.13932938       1.20461386       0.81656521
H       -0.85103296      -0.73943385      -2.29844672
H       -2.20243575      -0.51529331      -1.16728689
16
Frame=11 idx=010976 GeodesicLength=1.102239044854075 rxn_smarts="[C:1]([C@@:2]1([H:11])[N:3]2[C:4]([H:12])([H:13])[C:5]1([O:6][H:14])[C:7]2([H:15])[H:16])([H:8])([H:9])[H:10]>>[C:1]([C@@:2]1([H:11])[N:3]([C:4]([H:12])([H:13])[H:14])[C:7]([H:15])([H:16])[C:5]1=[O:6])([H:8])([H:9])[H:10]"
C        1.80260268       0.24042630       0.60795171
C        0.79835054      -0.13485445      -0.45742217
N       -0.30393037      -1.13306606      -0.20137113
C       -0.96708622      -0.42290360       0.92680166
C       -0.43184339       0.75009776      -0.69531764
O       -0.74967040       1.98087026      -0.45899817
C       -1.11604733      -0.47646449      -1.27778497
H        2.31353960      -0.64869419       0.97960982
H        2.54084677       0.92307363       0.18362476
H        1.37495745       0.76995940       1.45934828
H        1.34098093      -0.37856541      -1.37590543
H       -0.42328979      -0.60189951       1.85383753
H       -1.96831056      -0.83315130       1.07579182
H       -1.14307919       1.20896405       0.85024158
H       -0.86463014      -0.74796371      -2.30302556
H       -2.20339058      -0.49582870      -1.16738209
16
Frame=12 idx=010976 GeodesicLength=1.2026994876876143 rxn_smarts="[C:1]([C@@:2]1([H:11])[N:3]2[C:4]([H:12])([H:13])[C:5]1([O:6][H:14])[C:7]2([H:15])[H:16])([H:8])([H:9])[H:10]>>[C:1]([C@@:2]1([H:11])[N:3]([C:4]([H:12])([H:13])[H:14])[C:7]([H:15])([H:16])[C:5]1=[O:6])([H:8])([H:9])[H:10]"
C        1.79993070       0.24657453       0.60660319
C        0.80176818      -0.13902106      -0.46151086
N       -0.30635987      -1.12878383      -0.20402066
C       -0.96795819      -0.42501314       0.92852143
C       -0.42036814       0.75175477      -0.71562363
O       -0.74110274       1.97787888      -0.46348674
C       -1.11645162      -0.47413522      -1.28207549
H        2.30552285      -0.63914311       0.99323206
H        2.54233361       0.92335134       0.17994771
H        1.36953493       0.78835863       1.44896273
H        1.35288104      -0.39302517      -1.37222841
H       -0.42513845      -0.62288365       1.85271353
H       -1.96498715      -0.84607840       1.07797285
H       -1.14706406       1.21313286       0.88608163
H       -0.87855286      -0.75687032      -2.30748510
H       -2.20398823      -0.47609711      -1.16760426
16
Frame=13 idx=010976 GeodesicLength=1.3031485228305353 rxn_smarts="[C:1]([C@@:2]1([H:11])[N:3]2[C:4]([H:12])([H:13])[C:5]1([O:6][H:14])[C:7]2([H:15])[H:16])([H:8])([H:9])[H:10]>>[C:1]([C@@:2]1([H:11])[N:3]([C:4]([H:12])([H:13])[H:14])[C:7]([H:15])([H:16])[C:5]1=[O:6])([H:8])([H:9])[H:10]"
C        1.79718406       0.25285163       0.60512342
C        0.80528899      -0.14319617      -0.46571644
N       -0.30881439      -1.12420781      -0.20670288
C       -0.96887172      -0.42678831       0.93011948
C       -0.40832048       0.75333292      -0.73710947
O       -0.73272751       1.97416546      -0.46768965
C       -1.11677487      -0.47174501      -1.28657088
H        2.29723989      -0.62922714       1.00682428
H        2.54384877       0.92364724       0.17627575
H        1.36402587       0.80684211       1.43818132
H        1.36500288      -0.40803360      -1.36817657
H       -0.42717910      -0.64373402       1.85114205
H       -1.96161177      -0.85869893       1.07982176
H       -1.15127408       1.21704120       0.92427077
H       -0.89280845      -0.76616013      -2.31181476
H       -2.20420809      -0.45608943      -1.16797818
16
Frame=14 idx=010976 GeodesicLength=1.403554389213094 rxn_smarts="[C:1]([C@@:2]1([H:11])[N:3]2[C:4]([H:12])([H:13])[C:5]1([O:6][H:14])[C:7]2([H:15])[H:16])([H:8])([H:9])[H:10]>>[C:1]([C@@:2]1([H:11])[N:3]([C:4]([H:12])([H:13])[H:14])[C:7]([H:15])([H:16])[C:5]1=[O:6])([H:8])([H:9])[H:10]"
C        1.79435558       0.25927450       0.60349895
C        0.80891208      -0.14737066      -0.47004776
N       -0.31129662      -1.11931286      -0.20942202
C       -0.96983410      -0.42820513       0.93159262
C       -0.39566917       0.75481280      -0.75983766
O       -0.72453089       1.96964653      -0.47164970
C       -1.11700375      -0.46928168      -1.29128952
H        2.28866830      -0.61891883       1.02038459
H        2.54539203       0.92396592       0.17259778
H        1.35842453       0.82543636       1.42697638
H        1.37734340      -0.42360725      -1.36371421
H       -0.42942986      -0.66443443       1.84910913
H       -1.95820374      -0.87096579       1.08131662
H       -1.15568712       1.22058577       0.96501866
H       -0.90741314      -0.77583758      -2.31600047
H       -2.20402753      -0.43578766      -1.16853339
16
Frame=15 idx=010976 GeodesicLength=1.5038740826945385 rxn_smarts="[C:1]([C@@:2]1([H:11])[N:3]2[C:4]([H:12])([H:13])[C:5]1([O:6][H:14])[C:7]2([H:15])[H:16])([H:8])([H:9])[H:10]>>[C:1]([C@@:2]1([H:11])[N:3]([C:4]([H:12])([H:13])[H:14])[C:7]([H:15])([H:16])[C:5]1=[O:6])([H:8])([H:9])[H:10]"
C        1.79143610       0.26586105       0.60171754
C        0.81263364      -0.15153322      -0.47451275
N       -0.31381183      -1.11407196      -0.21218062
C       -0.97085387      -0.42923980       0.93294179
C       -0.38238750       0.75617211      -0.78386208
O       -0.71648082       1.96424315      -0.47543824
C       -1.11712611      -0.46672934      -1.29624761
H        2.27978564      -0.60819257       1.03390774
H        2.54695834       0.92431881       0.16890285
H        1.35272118       0.84416576       1.41532333
H        1.38989607      -0.43975692      -1.35880758
H       -0.43190855      -0.68497127       1.84660439
H       -1.95478561      -0.88283082       1.08243955
H       -1.16027379       1.22364337       1.00853429
H       -0.92237684      -0.78589922      -2.32002689
H       -2.20342605      -0.41517911      -1.16929572
16
Frame=16 idx=010976 GeodesicLength=1.604057432938999 rxn_smarts="[C:1]([C@@:2]1([H:11])[N:3]2[C:4]([H:12])([H:13])[C:5]1([O:6][H:14])[C:7]2([H:15])[H:16])([H:8])([H:9])[H:10]>>[C:1]([C@@:2]1([H:11])[N:3]([C:4]([H:12])([H:13])[H:14])[C:7]([H:15])([H:16])[C:5]1=[O:6])([H:8])([H:9])[H:10]"
C        1.78841465       0.27263033       0.59976766
C        0.81644845      -0.15567266      -0.47911862
N       -0.31636513      -1.10845928      -0.21497961
C       -0.97193955      -0.42987172       0.93417095
C       -0.36845376       0.75738292      -0.80922466
O       -0.70853195       1.95788675      -0.47915435
C       -1.11712908      -0.46407323      -1.30146016
H        2.27056724      -0.59701824       1.04738908
H        2.54853916       0.92471875       0.16518117
H        1.34690404       0.86305615       1.40319549
H        1.40264842      -0.45648566      -1.35341894
H       -0.43463445      -0.70533304       1.84361779
H       -1.95138313      -0.89424395       1.08317317
H       -1.16499151       1.22606937       1.05502874
H       -0.93771254      -0.79633467      -2.32387648
H       -2.20238085      -0.39425182      -1.17029123
