18
Frame=0 idx=008243 GeodesicLength=0.0 rxn_smarts="[C:1]([C:2]([C:3]([N:4]([C:5](=[O:6])[C:7]([H:16])([H:17])[H:18])[H:15])([H:13])[H:14])([H:11])[H:12])([H:8])([H:9])[H:10]>>[C:1]([C:2]([C:3]([C:7]([H:16])([H:17])[H:18])([H:13])[H:14])([H:11])[H:12])([H:8])([H:9])[H:10].[N:4](=[C:5]=[O:6])[H:15]"
C       -1.79052258      -0.80091543      -0.62095910
C       -1.21273043       0.60641860      -0.56741464
C       -0.30706025       0.89650343       0.55937946
N        0.98433380      -1.33240969       1.46350379
C        1.51474526      -0.17408307       1.21566005
O        2.09293857       0.65446049       1.88848925
C        1.67479883       0.16712157      -0.46954334
H       -2.61474312      -0.84937725      -1.33220680
H       -1.03994317      -1.52522498      -0.94022042
H       -2.16112215      -1.11344690       0.35617699
H       -0.77530797       0.90819862      -1.52092695
H       -2.03012396       1.32555428      -0.38089104
H        0.23093780       1.83304172       0.57668986
H       -0.61663203       0.54320870       1.53346219
H        0.56341479      -1.72068577       0.63052860
H        1.74352022       1.21938077      -0.72522081
H        1.05840936      -0.39557814      -1.16525869
H        2.68508699      -0.24216689      -0.50124832
18
Frame=1 idx=008243 GeodesicLength=0.10215217223806765 rxn_smarts="[C:1]([C:2]([C:3]([N:4]([C:5](=[O:6])[C:7]([H:16])([H:17])[H:18])[H:15])([H:13])[H:14])([H:11])[H:12])([H:8])([H:9])[H:10]>>[C:1]([C:2]([C:3]([C:7]([H:16])([H:17])[H:18])([H:13])[H:14])([H:11])[H:12])([H:8])([H:9])[H:10].[N:4](=[C:5]=[O:6])[H:15]"
C       -1.79850912      -0.80051336      -0.62421062
C       -1.22017152       0.60620840      -0.56498353
C       -0.30173374       0.88357985       0.55800992
N        0.95415612      -1.31429106       1.47055421
C        1.54132003      -0.18442504       1.22853015
O        2.11270275       0.64415827       1.90390713
C        1.68865913       0.17071979      -0.47539270
H       -2.62388303      -0.84588690      -1.33448309
H       -1.04853101      -1.52374075      -0.94764989
H       -2.16878915      -1.11756360       0.35183637
H       -0.78615493       0.91249648      -1.51865179
H       -2.03641733       1.32425877      -0.37294947
H        0.21620007       1.83207529       0.58429103
H       -0.62814605       0.54903842       1.53411797
H        0.55727819      -1.72108714       0.63562769
H        1.74613884       1.21651056      -0.76007971
H        1.08672081      -0.41824545      -1.16219259
H        2.70915992      -0.21329253      -0.50628108
18
Frame=2 idx=008243 GeodesicLength=0.2040325694981306 rxn_smarts="[C:1]([C:2]([C:3]([N:4]([C:5](=[O:6])[C:7]([H:16])([H:17])[H:18])[H:15])([H:13])[H:14])([H:11])[H:12])([H:8])([H:9])[H:10]>>[C:1]([C:2]([C:3]([C:7]([H:16])([H:17])[H:18])([H:13])[H:14])([H:11])[H:12])([H:8])([H:9])[H:10].[N:4](=[C:5]=[O:6])[H:15]"
C       -1.80616778      -0.79989307      -0.62765371
C       -1.22778395       0.60639084      -0.56238119
C       -0.29654508       0.87096935       0.55665210
N        0.92554794      -1.29531323       1.47679240
C        1.56773150      -0.19610288       1.24166662
O        2.13263891       0.63255884       1.91936331
C        1.70220773       0.17430901      -0.48124518
H       -2.63247761      -0.84236754      -1.33717492
H       -1.05644872      -1.52174424      -0.95507777
H       -2.17633356      -1.12164296       0.34714630
H       -0.79741084       0.91761541      -1.51613796
H       -2.04311612       1.32299721      -0.36466875
H        0.20113873       1.83090691       0.59211766
H       -0.64002646       0.55549955       1.53423293
H        0.55047524      -1.72172455       0.64252228
H        1.74766727       1.21218304      -0.79672329
H        1.11616996      -0.44170408      -1.15827369
H        2.73273284      -0.18293761      -0.51115712
18
Frame=3 idx=008243 GeodesicLength=0.3056387266874072 rxn_smarts="[C:1]([C:2]([C:3]([N:4]([C:5](=[O:6])[C:7]([H:16])([H:17])[H:18])[H:15])([H:13])[H:14])([H:11])[H:12])([H:8])([H:9])[H:10]>>[C:1]([C:2]([C:3]([C:7]([H:16])([H:17])[H:18])([H:13])[H:14])([H:11])[H:12])([H:8])([H:9])[H:10].[N:4](=[C:5]=[O:6])[H:15]"
C       -1.81349214      -0.79903570      -0.63134165
C       -1.23558868       0.60698718      -0.55959363
C       -0.29153315       0.85870316       0.55533293
N        0.89869965      -1.27556327       1.48233231
C        1.59399709      -0.20907335       1.25509291
O        2.15284300       0.61970861       1.93481266
C        1.71540409       0.17791159      -0.48710865
H       -2.64050979      -0.83879034      -1.34035242
H       -1.06366537      -1.51918868      -0.96256592
H       -2.18376159      -1.12570274       0.34203305
H       -0.80910706       0.92362293      -1.51335098
H       -2.05026202       1.32176014      -0.35602697
H        0.18573571       1.82956187       0.60014825
H       -0.65219115       0.56243275       1.53379379
H        0.54291719      -1.72247183       0.65124341
H        1.74802386       1.20616223      -0.83528062
H        1.14683507      -0.46594044      -1.15337137
H        2.75565529      -0.15108411      -0.51579709
18
Frame=4 idx=008243 GeodesicLength=0.4069721632876646 rxn_smarts="[C:1]([C:2]([C:3]([N:4]([C:5](=[O:6])[C:7]([H:16])([H:17])[H:18])[H:15])([H:13])[H:14])([H:11])[H:12])([H:8])([H:9])[H:10]>>[C:1]([C:2]([C:3]([C:7]([H:16])([H:17])[H:18])([H:13])[H:14])([H:11])[H:12])([H:8])([H:9])[H:10].[N:4](=[C:5]=[O:6])[H:15]"
C       -1.82046629      -0.79792612      -0.63532159
C       -1.24360979       0.60801908      -0.55660599
C       -0.28673368       0.84682081       0.55407361
N        0.87373275      -1.25511445       1.48728611
C        1.62012604      -0.22329401       1.26882499
O        2.17340945       0.60564363       1.95021171
C        1.72820065       0.18154800      -0.49300100
H       -2.64795829      -0.83513646      -1.34407272
H       -1.07013800      -1.51602415      -0.97017717
H       -2.19105874      -1.12976890       0.33643139
H       -0.82128148       0.93058840      -1.51025541
H       -2.05790302       1.32053211      -0.34699643
H        0.16998024       1.82807464       0.60835730
H       -0.66456108       0.56969722       1.53280407
H        0.53453873      -1.72320820       0.66179269
H        1.74715154       1.19817357      -0.87586229
H        1.17880183      -0.49091741      -1.14736309
H        2.77776914      -0.11770776      -0.52012618
18
Frame=5 idx=008243 GeodesicLength=0.5080342857941232 rxn_smarts="[C:1]([C:2]([C:3]([N:4]([C:5](=[O:6])[C:7]([H:16])([H:17])[H:18])[H:15])([H:13])[H:14])([H:11])[H:12])([H:8])([H:9])[H:10]>>[C:1]([C:2]([C:3]([C:7]([H:16])([H:17])[H:18])([H:13])[H:14])([H:11])[H:12])([H:8])([H:9])[H:10].[N:4](=[C:5]=[O:6])[H:15]"
C       -1.82706413      -0.79655119      -0.63963317
C       -1.25187445       0.60950812      -0.55340187
C       -0.28218044       0.83536884       0.55288865
N        0.85070971      -1.23402487       1.49175257
C        1.64611709      -0.23872749       1.28287120
O        2.19442730       0.59038611       1.96551756
C        1.74054107       0.18523406      -0.49894963
H       -2.65479518      -0.83139571      -1.34837891
H       -1.07581036      -1.51219627      -0.97797004
H       -2.19819099      -1.13387116       0.33028404
H       -0.83397747       0.93858032      -1.50681214
H       -2.06609311       1.31929150      -0.33754414
H        0.15386672       1.82648650       0.61671482
H       -0.67706330       0.57717358       1.53127902
H        0.52529691      -1.72381729       0.67414859
H        1.74502036       1.18790270      -0.91855477
H        1.21216389      -0.51657344      -1.14013614
H        2.79890639      -0.08277431      -0.52407562
18
Frame=6 idx=008243 GeodesicLength=0.608831590965988 rxn_smarts="[C:1]([C:2]([C:3]([N:4]([C:5](=[O:6])[C:7]([H:16])([H:17])[H:18])[H:15])([H:13])[H:14])([H:11])[H:12])([H:8])([H:9])[H:10]>>[C:1]([C:2]([C:3]([C:7]([H:16])([H:17])[H:18])([H:13])[H:14])([H:11])[H:12])([H:8])([H:9])[H:10].[N:4](=[C:5]=[O:6])[H:15]"
C       -1.83325431      -0.79490088      -0.64431455
C       -1.26041426       0.61147518      -0.54996419
C       -0.27790319       0.82439685       0.55178845
N        0.82965325      -1.21233239       1.49581799
C        1.67196730      -0.25534283       1.29722757
O        2.21599036       0.57394444       1.98067915
C        1.75235888       0.18897673      -0.50499871
H       -2.66098579      -0.82756658      -1.35331563
H       -1.08061804      -1.50764826      -0.98599963
H       -2.20511570      -1.13804548       0.32353490
H       -0.84724459       0.94766904      -1.50297966
H       -2.07489202       1.31800899      -0.32763209
H        0.13739448       1.82484487       0.62519021
H       -0.68963033       0.58476359       1.52925096
H        0.51515520      -1.72418510       0.68829302
H        1.74163553       1.17499626      -0.96340010
H        1.24701456      -0.54282714      -1.13158704
H        2.81888867      -0.04622729      -0.52759064
18
Frame=7 idx=008243 GeodesicLength=0.7093702291975695 rxn_smarts="[C:1]([C:2]([C:3]([N:4]([C:5](=[O:6])[C:7]([H:16])([H:17])[H:18])[H:15])([H:13])[H:14])([H:11])[H:12])([H:8])([H:9])[H:10]>>[C:1]([C:2]([C:3]([C:7]([H:16])([H:17])[H:18])([H:13])[H:14])([H:11])[H:12])([H:8])([H:9])[H:10].[N:4](=[C:5]=[O:6])[H:15]"
C       -1.83899890      -0.79296643      -0.64939890
C       -1.26926299       0.61393974      -0.54627466
C       -0.27392998       0.81395734       0.55077895
N        0.81055509      -1.19005896       1.49954763
C        1.69766608      -0.27311732       1.31188024
O        2.23818983       0.55631401       1.99563759
C        1.76357570       0.19277132      -0.51120690
H       -2.66648788      -0.82365307      -1.35892193
H       -1.08448832      -1.50232210      -0.99431238
H       -2.21178069      -1.14232826       0.31613168
H       -0.86113338       0.95792047      -1.49871192
H       -2.08436172       1.31665020      -0.31721990
H        0.12056450       1.82320190       0.63375272
H       -0.70220340       0.59238893       1.52676160
H        0.50408737      -1.72419909       0.70420549
H        1.73703974       1.15906708      -1.01039387
H        1.28345047      -0.56957444      -1.12162617
H        2.83751848      -0.00799133      -0.53062928
18
Frame=8 idx=008243 GeodesicLength=0.8096591653218586 rxn_smarts="[C:1]([C:2]([C:3]([N:4]([C:5](=[O:6])[C:7]([H:16])([H:17])[H:18])[H:15])([H:13])[H:14])([H:11])[H:12])([H:8])([H:9])[H:10]>>[C:1]([C:2]([C:3]([C:7]([H:16])([H:17])[H:18])([H:13])[H:14])([H:11])[H:12])([H:8])([H:9])[H:10].[N:4](=[C:5]=[O:6])[H:15]"
C       -1.84425851      -0.79074090      -0.65491539
C       -1.27845594       0.61691761      -0.54231606
C       -0.27028681       0.80410236       0.54986213
N        0.79339124      -1.16721208       1.50298642
C        1.72319952      -0.29203674       1.32680410
O        2.26111868       0.53747904       2.01032060
C        1.77410192       0.19659733      -0.51765181
H       -2.67125481      -0.81966358      -1.36523581
H       -1.08734750      -1.49616253      -1.00294320
H       -2.21813297      -1.14675450       0.30802567
H       -0.87569122       0.96939085      -1.49396139
H       -2.09456310       1.31517611      -0.30627030
H        0.10337659       1.82161282       0.64237399
H       -0.71473310       0.59998761       1.52386131
H        0.49207022      -1.72374498       0.72187413
H        1.73132576       1.13970977      -1.05946269
H        1.32156621      -0.59668669      -1.11018344
H        2.85457384       0.03202851      -0.53316824
18
Frame=9 idx=008243 GeodesicLength=0.9097075205603187 rxn_smarts="[C:1]([C:2]([C:3]([N:4]([C:5](=[O:6])[C:7]([H:16])([H:17])[H:18])[H:15])([H:13])[H:14])([H:11])[H:12])([H:8])([H:9])[H:10]>>[C:1]([C:2]([C:3]([C:7]([H:16])([H:17])[H:18])([H:13])[H:14])([H:11])[H:12])([H:8])([H:9])[H:10].[N:4](=[C:5]=[O:6])[H:15]"
C       -1.84899389      -0.78821678      -0.66088821
C       -1.28802794       0.62041867      -0.53807187
C       -0.26699837       0.79488046       0.54903606
N        0.77813079      -1.14378763       1.50615766
C        1.74854950      -0.31209510       1.34196508
O        2.28487076       0.51741544       2.02464015
C        1.78383706       0.20041297      -0.52442680
H       -2.67523615      -0.81560717      -1.37229298
H       -1.08912356      -1.48911553      -1.01191045
H       -2.22412326      -1.15135212       0.29917030
H       -0.89095663       0.98212015      -1.48867626
H       -2.10555311       1.31354218      -0.29475246
H        0.08582812       1.82012987       0.65102958
H       -0.72718017       0.60750773       1.52060159
H        0.47908342      -1.72270113       0.74129707
H        1.72463760       1.11651500      -1.11046074
H        1.36145557      -0.62400971      -1.09721300
H        2.86980026       0.07394270      -0.53520473
18
Frame=10 idx=008243 GeodesicLength=1.0095289030076033 rxn_smarts="[C:1]([C:2]([C:3]([N:4]([C:5](=[O:6])[C:7]([H:16])([H:17])[H:18])[H:15])([H:13])[H:14])([H:11])[H:12])([H:8])([H:9])[H:10]>>[C:1]([C:2]([C:3]([C:7]([H:16])([H:17])[H:18])([H:13])[H:14])([H:11])[H:12])([H:8])([H:9])[H:10].[N:4](=[C:5]=[O:6])[H:15]"
C       -1.85316717      -0.78538873      -0.66733935
C       -1.29801117       0.62444736      -0.53352868
C       -0.26408616       0.78633651       0.54829859
N        0.76474475      -1.11977031       1.50906949
C        1.77369693      -0.33329710       1.35731582
O        2.30954806       0.49608876       2.03848310
C        1.79266681       0.20414804      -0.53164904
H       -2.67837588      -0.81149385      -1.38013580
H       -1.08974959      -1.48113716      -1.02121742
H       -2.22970892      -1.15614487       0.28952100
H       -0.90695574       0.99613137      -1.48280675
H       -2.11738024       1.31170314      -0.28264719
H        0.06791426       1.81880582       0.65970171
H       -0.73951358       0.61490814       1.51704238
H        0.46509993      -1.72094159       0.76249805
H        1.71717847       1.08909278      -1.16315009
H        1.40320078      -0.65136982      -1.08269530
H        2.88289845       0.11788153      -0.53676053
18
Frame=11 idx=008243 GeodesicLength=1.1091398839859972 rxn_smarts="[C:1]([C:2]([C:3]([N:4]([C:5](=[O:6])[C:7]([H:16])([H:17])[H:18])[H:15])([H:13])[H:14])([H:11])[H:12])([H:8])([H:9])[H:10]>>[C:1]([C:2]([C:3]([C:7]([H:16])([H:17])[H:18])([H:13])[H:14])([H:11])[H:12])([H:8])([H:9])[H:10].[N:4](=[C:5]=[O:6])[H:15]"
C       -1.85674391      -0.78225262      -0.67428470
C       -1.30843298       0.62899872      -0.52867714
C       -0.26156966       0.77850905       0.54764588
N        0.75320992      -1.09513896       1.51171511
C        1.79861879      -0.35565711       1.37280084
O        2.33525671       0.47345701       2.05171185
C        1.80046681       0.20770123      -0.53945351
H       -2.68061527      -0.80733237      -1.38880625
H       -1.08916778      -1.47219447      -1.03084652
H       -2.23485713      -1.16114686       0.27903866
H       -0.92369579       1.01141995      -1.47630587
H       -2.13008140       1.30961175      -0.26995186
H        0.04962495       1.81768867       0.66837902
H       -0.75171255       0.62215207       1.51324356
H        0.45009127      -1.71832984       0.78552209
H        1.70922568       1.05710640      -1.21720058
H        1.44686881      -0.67856364      -1.06664707
H        2.89351353       0.16397101      -0.53788351
18
Frame=12 idx=008243 GeodesicLength=1.2085628032204758 rxn_smarts="[C:1]([C:2]([C:3]([N:4]([C:5](=[O:6])[C:7]([H:16])([H:17])[H:18])[H:15])([H:13])[H:14])([H:11])[H:12])([H:8])([H:9])[H:10]>>[C:1]([C:2]([C:3]([C:7]([H:16])([H:17])[H:18])([H:13])[H:14])([H:11])[H:12])([H:8])([H:9])[H:10].[N:4](=[C:5]=[O:6])[H:15]"
C       -1.85969657      -0.77880788      -0.68172966
C       -1.31931238       0.63405549      -0.52351538
C       -0.25946371       0.77143000       0.54707123
N        0.74350923      -1.06987055       1.51407004
C        1.82328612      -0.37920414       1.38835901
O        2.36210487       0.44946513       2.06416485
C        1.80710921       0.21093804      -0.54798920
H       -2.68189784      -0.80313189      -1.39834029
H       -1.08733717      -1.46227343      -1.04075361
H       -2.23954768      -1.16635976       0.26769681
H       -0.94116025       1.02794318      -1.46913698
H       -2.14367609       1.30722187      -0.25668971
H        0.03094704       1.81682102       0.67705402
H       -0.76376354       0.62920773       1.50926199
H        0.43402589      -1.71471872       0.81043685
H        1.70113534       1.02031759      -1.27218473
H        1.49250778      -0.70535402      -1.04912990
H        2.90122975       0.21232036      -0.53864538
18
Frame=13 idx=008243 GeodesicLength=1.3078201239927743 rxn_smarts="[C:1]([C:2]([C:3]([N:4]([C:5](=[O:6])[C:7]([H:16])([H:17])[H:18])[H:15])([H:13])[H:14])([H:11])[H:12])([H:8])([H:9])[H:10]>>[C:1]([C:2]([C:3]([C:7]([H:16])([H:17])[H:18])([H:13])[H:14])([H:11])[H:12])([H:8])([H:9])[H:10].[N:4](=[C:5]=[O:6])[H:15]"
C       -1.86200762      -0.77505899      -0.68966197
C       -1.33065432       0.63958230      -0.51805072
C       -0.25777585       0.76512200       0.54656180
N        0.73562905      -1.04394511       1.51608664
C        1.84765811      -0.40398403       1.40392732
O        2.39019550       0.42404058       2.07565789
C        1.81247162       0.21369531      -0.55740767
H       -2.68217398      -0.79890345      -1.40875547
H       -1.08424176      -1.45138269      -1.05086030
H       -2.24377554      -1.17176856       0.25548938
H       -0.95930136       1.04560691      -1.46127720
H       -2.15815731       1.30448626      -0.24291666
H        0.01186703       1.81623439       0.68571960
H       -0.77565860       0.63604413       1.50514225
H        0.41686468      -1.70994279       0.83732972
H        1.69334897       0.97863512      -1.32759051
H        1.54014365      -0.73146000      -1.03025863
H        2.90556772       0.26299861      -0.53913546
18
Frame=14 idx=008243 GeodesicLength=1.4069488241214407 rxn_smarts="[C:1]([C:2]([C:3]([N:4]([C:5](=[O:6])[C:7]([H:16])([H:17])[H:18])[H:15])([H:13])[H:14])([H:11])[H:12])([H:8])([H:9])[H:10]>>[C:1]([C:2]([C:3]([C:7]([H:16])([H:17])[H:18])([H:13])[H:14])([H:11])[H:12])([H:8])([H:9])[H:10].[N:4](=[C:5]=[O:6])[H:15]"
C       -1.86367122      -0.77102118      -0.69804656
C       -1.34245227       0.64552817      -0.51230386
C       -0.25650423       0.75960486       0.54609737
N        0.72955460      -1.01735224       1.51769346
C        1.87167581      -0.43006947       1.41944499
O        2.41962218       0.39707628       2.08599325
C        1.81644654       0.21578821      -0.56786170
H       -2.68140798      -0.79466725      -1.42004428
H       -1.07989190      -1.43956672      -1.06105422
H       -2.24754623      -1.17734420       0.24244572
H       -0.97804948       1.06426550      -1.45273403
H       -2.17349655       1.30136654      -0.22872392
H       -0.00762971       1.81595989       0.69436070
H       -0.78738946       0.64264160       1.50092205
H        0.39856801      -1.70382841       0.86630684
H        1.68640991       0.93215741      -1.38284895
H        1.58977350      -0.75655682      -1.01020406
H        2.90598847       0.31601784      -0.53944278
18
Frame=15 idx=008243 GeodesicLength=1.505994049140788 rxn_smarts="[C:1]([C:2]([C:3]([N:4]([C:5](=[O:6])[C:7]([H:16])([H:17])[H:18])[H:15])([H:13])[H:14])([H:11])[H:12])([H:8])([H:9])[H:10]>>[C:1]([C:2]([C:3]([C:7]([H:16])([H:17])[H:18])([H:13])[H:14])([H:11])[H:12])([H:8])([H:9])[H:10].[N:4](=[C:5]=[O:6])[H:15]"
C       -1.86469576      -0.76672278      -0.70682013
C       -1.35468507       0.65182319      -0.50630851
C       -0.25563306       0.75489466       0.54564557
N        0.72526613      -0.99009519       1.51878933
C        1.89525390      -0.45756323       1.43485950
O        2.45045764       0.36842380       2.09496545
C        1.81895473       0.21702515      -0.57948847
H       -2.67958468      -0.79045640      -1.43216112
H       -1.07433101      -1.42690618      -1.07118814
H       -2.25087467      -1.18304414       0.22863629
H       -0.99731662       1.08371851      -1.44354681
H       -2.18963832       1.29782986      -0.21423517
H       -0.02755313       1.81602469       0.70294798
H       -0.79894108       0.64899147       1.49662224
H        0.37908914      -1.69618270       0.89749081
H        1.68095595       0.88120212      -1.43737610
H        1.64137187      -0.78027126      -0.98919065
H        2.90190403       0.37130843      -0.53964207
18
Frame=16 idx=008243 GeodesicLength=1.6050150666495846 rxn_smarts="[C:1]([C:2]([C:3]([N:4]([C:5](=[O:6])[C:7]([H:16])([H:17])[H:18])[H:15])([H:13])[H:14])([H:11])[H:12])([H:8])([H:9])[H:10]>>[C:1]([C:2]([C:3]([C:7]([H:16])([H:17])[H:18])([H:13])[H:14])([H:11])[H:12])([H:8])([H:9])[H:10].[N:4](=[C:5]=[O:6])[H:15]"
C       -1.86510815      -0.76221013      -0.71588158
C       -1.36732180       0.65837933      -0.50011308
C       -0.25513112       0.75100842       0.54515407
N        0.72273238      -0.96219977       1.51923236
C        1.91826832      -0.48660432       1.45012968
O        2.48273733       0.33787621       2.10237301
C        1.81996173       0.21723112      -0.59240535
H       -2.67672179      -0.78632620      -1.44500463
H       -1.06763948      -1.41352439      -1.08107809
H       -2.25378230      -1.18881405       0.21419150
H       -1.01701146       1.10371303      -1.43379768
H       -2.20650705       1.29385170      -0.19960064
H       -0.04790857       1.81645771       0.71142246
H       -0.81028475       0.65510401       1.49224400
H        0.35837931      -1.68679608       0.93101412
H        1.67774255       0.82633237      -1.49062236
H        1.69489159      -0.80217501      -0.96749255
H        2.89270328       0.42869604      -0.53976523
