14
Frame=0 idx=011406 GeodesicLength=0.0 rxn_smarts="[O:1]=[C:2]1[C:3]([H:8])([H:9])[C:4]([H:10])=[C:5]([H:11])[C:6]([H:12])([H:13])[N:7]1[H:14]>>[O:1]1[C:2](=[C:3]([H:8])[H:9])[N:7]([H:14])[C:6]([H:12])([H:13])[C:5]([H:11])=[C:4]1[H:10]"
O        1.05585654       0.72257011      -1.41940219
C        0.78425690       0.75405558      -0.12934736
C        1.64028246       0.21363803       0.80126518
C        0.41455917      -0.87781692      -0.72679837
C       -0.86683124      -1.00198949      -0.43549519
C       -1.46148569       0.15657945       0.31885474
N       -0.48965453       1.27255563       0.24995433
H        1.32987078       0.11395472       1.83134657
H        2.61167884      -0.14041673       0.49034861
H        1.18251498      -1.51620316      -1.12002865
H       -1.38229407      -1.93456705      -0.61790594
H       -1.63864722      -0.12381911       1.36361848
H       -2.41761646       0.49214998      -0.08519363
H       -0.76249041       1.86930899      -0.52121657
14
Frame=1 idx=011406 GeodesicLength=0.07752618094766497 rxn_smarts="[O:1]=[C:2]1[C:3]([H:8])([H:9])[C:4]([H:10])=[C:5]([H:11])[C:6]([H:12])([H:13])[N:7]1[H:14]>>[O:1]1[C:2](=[C:3]([H:8])[H:9])[N:7]([H:14])[C:6]([H:12])([H:13])[C:5]([H:11])=[C:4]1[H:10]"
O        1.06000267       0.72925948      -1.41305249
C        0.78785643       0.76903094      -0.12518298
C        1.64127698       0.20357366       0.79622835
C        0.41633679      -0.88970165      -0.72396646
C       -0.86657226      -1.00910294      -0.43504330
C       -1.46536089       0.15314735       0.30939270
N       -0.49107374       1.26408122       0.25215263
H        1.35046193       0.13488249       1.83439849
H        2.61807835      -0.13242269       0.48128372
H        1.16876181      -1.54273472      -1.12454925
H       -1.38474599      -1.94177430      -0.60907079
H       -1.65566733      -0.12383004       1.35288276
H       -2.41625801       0.48685888      -0.10868886
H       -0.76309673       1.89873230      -0.48678451
14
Frame=2 idx=011406 GeodesicLength=0.1550271294879723 rxn_smarts="[O:1]=[C:2]1[C:3]([H:8])([H:9])[C:4]([H:10])=[C:5]([H:11])[C:6]([H:12])([H:13])[N:7]1[H:14]>>[O:1]1[C:2](=[C:3]([H:8])[H:9])[N:7]([H:14])[C:6]([H:12])([H:13])[C:5]([H:11])=[C:4]1[H:10]"
O        1.06390401       0.73584516      -1.40667004
C        0.79145690       0.78423661      -0.12093965
C        1.64202656       0.19388223       0.79102013
C        0.41822241      -0.90211738      -0.72105610
C       -0.86620497      -1.01654291      -0.43443126
C       -1.46917268       0.14967300       0.29943066
N       -0.49247222       1.25549201       0.25381991
H        1.37217636       0.15645396       1.83636050
H        2.62400445      -0.12404765       0.47233379
H        1.15458278      -1.57007456      -1.12832818
H       -1.38741772      -1.94896557      -0.60050614
H       -1.67304616      -0.12353650       1.34147512
H       -2.41434568       0.48161749      -0.13316225
H       -0.76371403       1.92808410      -0.44934651
14
Frame=3 idx=011406 GeodesicLength=0.23246553927572206 rxn_smarts="[O:1]=[C:2]1[C:3]([H:8])([H:9])[C:4]([H:10])=[C:5]([H:11])[C:6]([H:12])([H:13])[N:7]1[H:14]>>[O:1]1[C:2](=[C:3]([H:8])[H:9])[N:7]([H:14])[C:6]([H:12])([H:13])[C:5]([H:11])=[C:4]1[H:10]"
O        1.06757276       0.74233253      -1.40031055
C        0.79505005       0.79974270      -0.11668442
C        1.64253191       0.18471995       0.78563010
C        0.42024048      -0.91505417      -0.71805471
C       -0.86569743      -1.02429245      -0.43361200
C       -1.47288050       0.14618872       0.28896551
N       -0.49385630       1.24686736       0.25482643
H        1.39482739       0.17842023       1.83709096
H        2.62941095      -0.11531849       0.46349207
H        1.14002363      -1.59824305      -1.13120836
H       -1.39030285      -1.95610787      -0.59221715
H       -1.69069630      -0.12285114       1.32939541
H       -2.41183724       0.47640947      -0.15859395
H       -0.76438654       1.95718619      -0.40871934
14
Frame=4 idx=011406 GeodesicLength=0.309801248762149 rxn_smarts="[O:1]=[C:2]1[C:3]([H:8])([H:9])[C:4]([H:10])=[C:5]([H:11])[C:6]([H:12])([H:13])[N:7]1[H:14]>>[O:1]1[C:2](=[C:3]([H:8])[H:9])[N:7]([H:14])[C:6]([H:12])([H:13])[C:5]([H:11])=[C:4]1[H:10]"
O        1.07103070       0.74875250      -1.39403688
C        0.79862536       0.81562880      -0.11249501
C        1.64278931       0.17623234       0.78003310
C        0.42241068      -0.92848200      -0.71498114
C       -0.86502289      -1.03231775      -0.43256788
C       -1.47644592       0.14273469       0.27797747
N       -0.49523628       1.23830108       0.25502404
H        1.41813004       0.20048049       1.83647108
H        2.63425812      -0.10626832       0.45473325
H        1.12512646      -1.62724296      -1.13305838
H       -1.39333882      -1.96321479      -0.58406543
H       -1.70852097      -0.12168885       1.31662858
H       -2.40869934       0.47122267      -0.18496885
H       -0.76510645       1.98586210      -0.36469394
14
Frame=5 idx=011406 GeodesicLength=0.38700250572540107 rxn_smarts="[O:1]=[C:2]1[C:3]([H:8])([H:9])[C:4]([H:10])=[C:5]([H:11])[C:6]([H:12])([H:13])[N:7]1[H:14]>>[O:1]1[C:2](=[C:3]([H:8])[H:9])[N:7]([H:14])[C:6]([H:12])([H:13])[C:5]([H:11])=[C:4]1[H:10]"
O        1.07429482       0.75504833      -1.38792941
C        0.80218040       0.83196105      -0.10847449
C        1.64280431       0.16858336       0.77420098
C        0.42476215      -0.94242437      -0.71176778
C       -0.86414930      -1.04059832      -0.43124221
C       -1.47979930       0.13933984       0.26649130
N       -0.49659560       1.22988793       0.25423651
H        1.44188397       0.22249641       1.83445153
H        2.63853053      -0.09689120       0.44603318
H        1.10993800      -1.65714147      -1.13363773
H       -1.39662396      -1.97013946      -0.57633370
H       -1.72635114      -0.11995117       1.30321395
H       -2.40488720       0.46601826      -0.21218949
H       -0.76598770       2.01381082      -0.31705262
14
Frame=6 idx=011406 GeodesicLength=0.46402395523918755 rxn_smarts="[O:1]=[C:2]1[C:3]([H:8])([H:9])[C:4]([H:10])=[C:5]([H:11])[C:6]([H:12])([H:13])[N:7]1[H:14]>>[O:1]1[C:2](=[C:3]([H:8])[H:9])[N:7]([H:14])[C:6]([H:12])([H:13])[C:5]([H:11])=[C:4]1[H:10]"
O        1.07741252       0.76128016      -1.38207542
C        0.80570371       0.84883129      -0.10472954
C        1.64257023       0.16189724       0.76808074
C        0.42730986      -0.95682808      -0.70847212
C       -0.86306098      -1.04907402      -0.42965524
C       -1.48290656       0.13605766       0.25447495
N       -0.49795457       1.22175945       0.25226460
H        1.46565576       0.24411546       1.83098445
H        2.64221738      -0.08721231       0.43734219
H        1.09449882      -1.68792000      -1.13284351
H       -1.40004167      -1.97693555      -0.56873364
H       -1.74406631      -0.11755495       1.28913729
H       -2.40040007       0.46078445      -0.24022674
H       -0.76693812       2.04079922      -0.26554802
14
Frame=7 idx=011406 GeodesicLength=0.5408141174111745 rxn_smarts="[O:1]=[C:2]1[C:3]([H:8])([H:9])[C:4]([H:10])=[C:5]([H:11])[C:6]([H:12])([H:13])[N:7]1[H:14]>>[O:1]1[C:2](=[C:3]([H:8])[H:9])[N:7]([H:14])[C:6]([H:12])([H:13])[C:5]([H:11])=[C:4]1[H:10]"
O        1.08044737       0.76743341      -1.37656612
C        0.80919087       0.86631463      -0.10138425
C        1.64206698       0.15629415       0.76162630
C        0.43006993      -0.97168178      -0.70508905
C       -0.86174458      -1.05768550      -0.42781773
C       -1.48569914       0.13293051       0.24194465
N       -0.49931338       1.21405935       0.24886515
H        1.48909026       0.26519399       1.82609492
H        2.64531004      -0.07723846       0.42864204
H        1.07883605      -1.71960504      -1.13050367
H       -1.40362114      -1.98350736      -0.56136215
H       -1.76144075      -0.11441868       1.27444856
H       -2.39524427       0.45547654      -0.26893614
H       -0.76794825       2.06643424      -0.20996252
14
Frame=8 idx=011406 GeodesicLength=0.6173402557633321 rxn_smarts="[O:1]=[C:2]1[C:3]([H:8])([H:9])[C:4]([H:10])=[C:5]([H:11])[C:6]([H:12])([H:13])[N:7]1[H:14]>>[O:1]1[C:2](=[C:3]([H:8])[H:9])[N:7]([H:14])[C:6]([H:12])([H:13])[C:5]([H:11])=[C:4]1[H:10]"
O        1.08348278       0.77349959      -1.37149559
C        0.81263517       0.88446854      -0.09857084
C        1.64125033       0.15184252       0.75479034
C        0.43304229      -0.98697608      -0.70164072
C       -0.86021679      -1.06636012      -0.42580562
C       -1.48812963       0.13000187       0.22888798
N       -0.50068246       1.20693941       0.24376128
H        1.51185588       0.28570772       1.81983680
H        2.64780223      -0.06696210       0.41992722
H        1.06296482      -1.75221783      -1.12646732
H       -1.40737412      -1.98979542      -0.55423813
H       -1.77825057      -0.11048843       1.25917966
H       -2.38947336       0.45006045      -0.29817845
H       -0.76890657       2.09027987      -0.14998661
14
Frame=9 idx=011406 GeodesicLength=0.6935179044639547 rxn_smarts="[O:1]=[C:2]1[C:3]([H:8])([H:9])[C:4]([H:10])=[C:5]([H:11])[C:6]([H:12])([H:13])[N:7]1[H:14]>>[O:1]1[C:2](=[C:3]([H:8])[H:9])[N:7]([H:14])[C:6]([H:12])([H:13])[C:5]([H:11])=[C:4]1[H:10]"
O        1.08665815       0.77938599      -1.36697991
C        0.81605116       0.90335957      -0.09646594
C        1.64004737       0.14864988       0.74754629
C        0.43624018      -1.00272145      -0.69808542
C       -0.85847424      -1.07499825      -0.42368085
C       -1.49007186       0.12732017       0.21539237
N       -0.50203799       1.20060310       0.23658690
H        1.53359405       0.30573469       1.81229829
H        2.64965754      -0.05640674       0.41126894
H        1.04690685      -1.78580888      -1.12047227
H       -1.41146533      -1.99553225      -0.54785945
H       -1.79405208      -0.10567673       1.24350810
H       -2.38315634       0.44445627      -0.32758539
H       -0.76989746       2.11163465      -0.08547167
14
Frame=10 idx=011406 GeodesicLength=0.7693535767415259 rxn_smarts="[O:1]=[C:2]1[C:3]([H:8])([H:9])[C:4]([H:10])=[C:5]([H:11])[C:6]([H:12])([H:13])[N:7]1[H:14]>>[O:1]1[C:2](=[C:3]([H:8])[H:9])[N:7]([H:14])[C:6]([H:12])([H:13])[C:5]([H:11])=[C:4]1[H:10]"
O        1.09008656       0.78511661      -1.36315117
C        0.81941010       0.92302625      -0.09525392
C        1.63835745       0.14673930       0.73982410
C        0.43963799      -1.01889261      -0.69451797
C       -0.85657497      -1.08350378      -0.42164215
C       -1.49152950       0.12495669       0.20133615
N       -0.50344090       1.19525435       0.22693242
H        1.55390684       0.32533823       1.80352771
H        2.65085294      -0.04551702       0.40268236
H        1.03065204      -1.82036173      -1.11243201
H       -1.41577310      -2.00081413      -0.54183053
H       -1.80867719      -0.09992972       1.22737889
H       -2.37643909       0.43865283      -0.35713455
H       -0.77046918       2.12993474      -0.01571933
14
Frame=11 idx=011406 GeodesicLength=0.8448063778572868 rxn_smarts="[O:1]=[C:2]1[C:3]([H:8])([H:9])[C:4]([H:10])=[C:5]([H:11])[C:6]([H:12])([H:13])[N:7]1[H:14]>>[O:1]1[C:2](=[C:3]([H:8])[H:9])[N:7]([H:14])[C:6]([H:12])([H:13])[C:5]([H:11])=[C:4]1[H:10]"
O        1.09396258       0.79062667      -1.36016896
C        0.82269790       0.94351666      -0.09517774
C        1.63602905       0.14618390       0.73158874
C        0.44322368      -1.03548073      -0.69096718
C       -0.85456260      -1.09173884      -0.41990057
C       -1.49242029       0.12300289       0.18669091
N       -0.50493562       1.19119567       0.21424164
H        1.57237207       0.34475404       1.79359817
H        2.65131418      -0.03427299       0.39429187
H        1.01418434      -1.85588659      -1.10214631
H       -1.42034497      -2.00550864      -0.53624727
H       -1.82169885      -0.09314799       1.21088814
H       -2.36950804       0.43259175      -0.38654988
H       -0.77031343       2.14416420       0.05985844
14
Frame=12 idx=011406 GeodesicLength=0.9198233807762022 rxn_smarts="[O:1]=[C:2]1[C:3]([H:8])([H:9])[C:4]([H:10])=[C:5]([H:11])[C:6]([H:12])([H:13])[N:7]1[H:14]>>[O:1]1[C:2](=[C:3]([H:8])[H:9])[N:7]([H:14])[C:6]([H:12])([H:13])[C:5]([H:11])=[C:4]1[H:10]"
O        1.09854029       0.79588097      -1.35816296
C        0.82588644       0.96487501      -0.09647614
C        1.63286737       0.14705113       0.72284929
C        0.44696352      -1.05245119      -0.68748293
C       -0.85251817      -1.09951698      -0.41875284
C       -1.49265237       0.12158351       0.17146049
N       -0.50660266       1.18885495       0.19788619
H        1.58848121       0.36424910       1.78261403
H        2.65095003      -0.02260533       0.38632429
H        0.99746925      -1.89231855      -1.08949104
H       -1.42524134      -2.00947119      -0.53118145
H       -1.83255851      -0.08526107       1.19420699
H       -2.36267510       0.42621646      -0.41540197
H       -0.76890997       2.15291318       0.14160807
14
Frame=13 idx=011406 GeodesicLength=0.9941897079035321 rxn_smarts="[O:1]=[C:2]1[C:3]([H:8])([H:9])[C:4]([H:10])=[C:5]([H:11])[C:6]([H:12])([H:13])[N:7]1[H:14]>>[O:1]1[C:2](=[C:3]([H:8])[H:9])[N:7]([H:14])[C:6]([H:12])([H:13])[C:5]([H:11])=[C:4]1[H:10]"
O        1.10413330       0.80091275      -1.35713875
C        0.82897767       0.98717256      -0.09926748
C        1.62866477       0.14939040       0.71369107
C        0.45084369      -1.06965111      -0.68406183
C       -0.85045125      -1.10651933      -0.41842540
C       -1.49195606       0.12088267       0.15591882
N       -0.50842447       1.18876896       0.17751276
H        1.60170016       0.38387715       1.77079361
H        2.64960726      -0.01063140       0.37908103
H        0.98044850      -1.92939310      -1.07440183
H       -1.43062682      -2.01220419      -0.52714563
H       -1.84042928      -0.07617834       1.17781474
H       -2.35617527       0.41950842      -0.44282577
H       -0.76631221       2.15406456       0.22845467
14
Frame=14 idx=011406 GeodesicLength=1.0681784303496935 rxn_smarts="[O:1]=[C:2]1[C:3]([H:8])([H:9])[C:4]([H:10])=[C:5]([H:11])[C:6]([H:12])([H:13])[N:7]1[H:14]>>[O:1]1[C:2](=[C:3]([H:8])[H:9])[N:7]([H:14])[C:6]([H:12])([H:13])[C:5]([H:11])=[C:4]1[H:10]"
O        1.11066095       0.80593428      -1.35702637
C        0.83181078       1.01036310      -0.10352118
C        1.62336676       0.15318215       0.70414486
C        0.45478421      -1.08699211      -0.68068309
C       -0.84848971      -1.11255830      -0.41917283
C       -1.49037343       0.12110318       0.13996688
N       -0.51056678       1.19141453       0.15334033
H        1.61202844       0.40393054       1.75825183
H        2.64731395       0.00195221       0.37259166
H        0.96297210      -1.96687916      -1.05696426
H       -1.43641232      -2.01376940      -0.52359965
H       -1.84549601      -0.06598616       1.16156226
H       -2.35019800       0.41269176      -0.46887195
H       -0.76140094       2.14561338       0.31998151
14
Frame=15 idx=011406 GeodesicLength=1.142049844317941 rxn_smarts="[O:1]=[C:2]1[C:3]([H:8])([H:9])[C:4]([H:10])=[C:5]([H:11])[C:6]([H:12])([H:13])[N:7]1[H:14]>>[O:1]1[C:2](=[C:3]([H:8])[H:9])[N:7]([H:14])[C:6]([H:12])([H:13])[C:5]([H:11])=[C:4]1[H:10]"
O        1.11751550       0.81163338      -1.35715366
C        0.83427167       1.03439708      -0.10838847
C        1.61737012       0.15813592       0.69432932
C        0.45871092      -1.10417911      -0.67718217
C       -0.84662772      -1.11744883      -0.42071205
C       -1.48790524       0.12236338       0.12399714
N       -0.51291436       1.19686820       0.12774790
H        1.62061262       0.42395259       1.74526770
H        2.64433802       0.01515730       0.36639828
H        0.94485160      -2.00423335      -1.03735267
H       -1.44264728      -2.01387931      -0.52062185
H       -1.84872254      -0.05511242       1.14544496
H       -2.34433036       0.40630259      -0.49360231
H       -0.75452294       2.12604257       0.41182789
14
Frame=16 idx=011406 GeodesicLength=1.2160687878191558 rxn_smarts="[O:1]=[C:2]1[C:3]([H:8])([H:9])[C:4]([H:10])=[C:5]([H:11])[C:6]([H:12])([H:13])[N:7]1[H:14]>>[O:1]1[C:2](=[C:3]([H:8])[H:9])[N:7]([H:14])[C:6]([H:12])([H:13])[C:5]([H:11])=[C:4]1[H:10]"
O        1.12354014       0.81891551      -1.35651676
C        0.83629935       1.05914595      -0.11244612
C        1.61147756       0.16369931       0.68437059
C        0.46256087      -1.12098682      -0.67331887
C       -0.84477887      -1.12132773      -0.42228568
C       -1.48477351       0.12444311       0.10861697
N       -0.51520406       1.20436665       0.10457904
H        1.62960119       0.44299673       1.73214750
H        2.64121219       0.02885475       0.35955459
H        0.92597654      -2.04092653      -1.01581030
H       -1.44935081      -2.01244891      -0.51865717
H       -1.85198033      -0.04443123       1.12940478
H       -2.33776352       0.40092843      -0.51751287
H       -0.74681672       2.09677079       0.49787431
