13
Frame=0 idx=002312 GeodesicLength=0.0 rxn_smarts="[O:1]=[C:2]([N:3]([C:4]1([H:9])[C:5]([H:10])([H:11])[C:6]1([H:12])[H:13])[H:8])[H:7]>>[O:1](/[C:2](=[N:3]/[C:4]1([H:9])[C:5]([H:10])([H:11])[C:6]1([H:12])[H:13])[H:7])[H:8]"
O        2.71870774      -1.30087335       0.14066604
C        1.69508935      -0.85535623      -0.48076949
N        1.05569166      -0.04155357       0.29731629
C       -0.11065752       0.73079295       0.02737719
C       -1.34114194       0.48461380       0.83951485
C       -1.31278054       0.09704609      -0.61085666
H        1.43927500      -1.14516949      -1.49855631
H        2.12589494      -0.48433465       0.97438067
H        0.09530665       1.76322998      -0.23448890
H       -1.28597689      -0.31444426       1.56680097
H       -1.93582755       1.33743320       1.13775026
H       -1.88184283       0.68738730      -1.31658208
H       -1.26173811      -0.95877176      -0.84255280
13
Frame=1 idx=002312 GeodesicLength=0.03181450197863232 rxn_smarts="[O:1]=[C:2]([N:3]([C:4]1([H:9])[C:5]([H:10])([H:11])[C:6]1([H:12])[H:13])[H:8])[H:7]>>[O:1](/[C:2](=[N:3]/[C:4]1([H:9])[C:5]([H:10])([H:11])[C:6]1([H:12])[H:13])[H:7])[H:8]"
O        2.70984933      -1.31058001       0.13833377
C        1.69766957      -0.84389983      -0.48680703
N        1.05953286      -0.03598740       0.30044242
C       -0.10892871       0.73225679       0.02775006
C       -1.33978722       0.48365384       0.83846351
C       -1.30846603       0.09468916      -0.61151841
H        1.42082832      -1.14203907      -1.49677751
H        2.12977888      -0.48503599       0.98351416
H        0.09430557       1.76511224      -0.23465712
H       -1.28443235      -0.31474432       1.56647317
H       -1.93710807       1.33523531       1.13501980
H       -1.87809130       0.68271441      -1.31871003
H       -1.25515085      -0.96137514      -0.84152679
13
Frame=2 idx=002312 GeodesicLength=0.06356623269714798 rxn_smarts="[O:1]=[C:2]([N:3]([C:4]1([H:9])[C:5]([H:10])([H:11])[C:6]1([H:12])[H:13])[H:8])[H:7]>>[O:1](/[C:2](=[N:3]/[C:4]1([H:9])[C:5]([H:10])([H:11])[C:6]1([H:12])[H:13])[H:7])[H:8]"
O        2.70335255      -1.31697982       0.13442077
C        1.69950498      -0.83395863      -0.49226819
N        1.06300191      -0.03135785       0.30375654
C       -0.10717365       0.73332128       0.02819963
C       -1.33859766       0.48290094       0.83737191
C       -1.30435142       0.09247892      -0.61219617
H        1.40250939      -1.13918977      -1.49452118
H        2.13297711      -0.48695067       0.99316888
H        0.09385503       1.76647155      -0.23479919
H       -1.28349984      -0.31483869       1.56613577
H       -1.93817705       1.33352973       1.13215245
H       -1.87418168       0.67842709      -1.32093330
H       -1.24921967      -0.96385408      -0.84048792
13
Frame=3 idx=002312 GeodesicLength=0.09538185817196619 rxn_smarts="[O:1]=[C:2]([N:3]([C:4]1([H:9])[C:5]([H:10])([H:11])[C:6]1([H:12])[H:13])[H:8])[H:7]>>[O:1](/[C:2](=[N:3]/[C:4]1([H:9])[C:5]([H:10])([H:11])[C:6]1([H:12])[H:13])[H:7])[H:8]"
O        2.69724993      -1.32269176       0.13019514
C        1.70098465      -0.82469605      -0.49752109
N        1.06636123      -0.02702010       0.30699518
C       -0.10542291       0.73424276       0.02860934
C       -1.33741587       0.48222117       0.83629384
C       -1.30034796       0.09026963      -0.61283672
H        1.38470413      -1.13585637      -1.49220561
H        2.13597701      -0.48910099       1.00293890
H        0.09354837       1.76763103      -0.23507251
H       -1.28266418      -0.31483442       1.56584631
H       -1.93911827       1.33199301       1.12926794
H       -1.87031492       0.67418304      -1.32313050
H       -1.24354121      -0.96634096      -0.83938023
13
Frame=4 idx=002312 GeodesicLength=0.127137797887604 rxn_smarts="[O:1]=[C:2]([N:3]([C:4]1([H:9])[C:5]([H:10])([H:11])[C:6]1([H:12])[H:13])[H:8])[H:7]>>[O:1](/[C:2](=[N:3]/[C:4]1([H:9])[C:5]([H:10])([H:11])[C:6]1([H:12])[H:13])[H:7])[H:8]"
O        2.69236262      -1.32672805       0.12524668
C        1.70199670      -0.81630375      -0.50250130
N        1.06952724      -0.02317185       0.31025736
C       -0.10366847       0.73495109       0.02903062
C       -1.33630413       0.48166390       0.83521079
C       -1.29648095       0.08812577      -0.61345967
H        1.36718603      -1.13250798      -1.48970245
H        2.13855297      -0.49191379       1.01298122
H        0.09351083       1.76850687      -0.23538837
H       -1.28210881      -0.31469702       1.56557550
H       -1.93992008       1.33073534       1.12632833
H       -1.86641043       0.67011470      -1.32534766
H       -1.23824352      -0.96877523      -0.83823105
13
Frame=5 idx=002312 GeodesicLength=0.15889259580718024 rxn_smarts="[O:1]=[C:2]([N:3]([C:4]1([H:9])[C:5]([H:10])([H:11])[C:6]1([H:12])[H:13])[H:8])[H:7]>>[O:1](/[C:2](=[N:3]/[C:4]1([H:9])[C:5]([H:10])([H:11])[C:6]1([H:12])[H:13])[H:7])[H:8]"
O        2.68802023      -1.32989320       0.11994239
C        1.70271455      -0.80844797      -0.50733782
N        1.07260394      -0.01956503       0.31344917
C       -0.10191533       0.73554833       0.02941509
C       -1.33519790       0.48117894       0.83413681
C       -1.29271586       0.08600438      -0.61405435
H        1.35005114      -1.12898285      -1.48711189
H        2.14080079      -0.49514534       1.02322286
H        0.09360054       1.76922659      -0.23580841
H       -1.28163410      -0.31447560       1.56533090
H       -1.94060424       1.32963334       1.12338348
H       -1.86254637       0.66611360      -1.32754136
H       -1.23317739      -0.97119519      -0.83702688
13
Frame=6 idx=002312 GeodesicLength=0.19066798706023153 rxn_smarts="[O:1]=[C:2]([N:3]([C:4]1([H:9])[C:5]([H:10])([H:11])[C:6]1([H:12])[H:13])[H:8])[H:7]>>[O:1](/[C:2](=[N:3]/[C:4]1([H:9])[C:5]([H:10])([H:11])[C:6]1([H:12])[H:13])[H:7])[H:8]"
O        2.68400818      -1.33250874       0.11446166
C        1.70320839      -0.80097426      -0.51210470
N        1.07563496      -0.01609121       0.31652751
C       -0.10016581       0.73607957       0.02974398
C       -1.33406876       0.48075154       0.83308083
C       -1.28903187       0.08388388      -0.61461211
H        1.33330705      -1.12520533      -1.48450593
H        2.14270839      -0.49874490       1.03364058
H        0.09375496       1.76984412      -0.23635982
H       -1.28115154      -0.31417513       1.56512700
H       -1.94118578       1.32863926       1.12044874
H       -1.85874547       0.66212231      -1.32969570
H       -1.22827272      -0.97362110      -0.83575204
13
Frame=7 idx=002312 GeodesicLength=0.22246007657477165 rxn_smarts="[O:1]=[C:2]([N:3]([C:4]1([H:9])[C:5]([H:10])([H:11])[C:6]1([H:12])[H:13])[H:8])[H:7]>>[O:1](/[C:2](=[N:3]/[C:4]1([H:9])[C:5]([H:10])([H:11])[C:6]1([H:12])[H:13])[H:7])[H:8]"
O        2.68007573      -1.33485476       0.10893308
C        1.70354527      -0.79375852      -0.51685365
N        1.07866377      -0.01265801       0.31946190
C       -0.09841923       0.73658291       0.03000676
C       -1.33289623       0.48036730       0.83204860
C       -1.28540846       0.08174190      -0.61512419
H        1.31697057      -1.12110159      -1.48193825
H        2.14430203      -0.50264932       1.04420452
H        0.09392339       1.77040787      -0.23705327
H       -1.28058904      -0.31379972       1.56497679
H       -1.94168769       1.32770967       1.11752881
H       -1.85501547       0.65808822      -1.33180415
H       -1.22346464      -0.97607594      -0.83438695
13
Frame=8 idx=002312 GeodesicLength=0.2542134226615893 rxn_smarts="[O:1]=[C:2]([N:3]([C:4]1([H:9])[C:5]([H:10])([H:11])[C:6]1([H:12])[H:13])[H:8])[H:7]>>[O:1](/[C:2](=[N:3]/[C:4]1([H:9])[C:5]([H:10])([H:11])[C:6]1([H:12])[H:13])[H:7])[H:8]"
O        2.67616834      -1.33689962       0.10334678
C        1.70377080      -0.78672886      -0.52161331
N        1.08170644      -0.00924139       0.32225497
C       -0.09667034       0.73706984       0.03020591
C       -1.33167468       0.48002798       0.83104234
C       -1.28183338       0.07956965      -0.61558535
H        1.30101066      -1.11670447      -1.47940763
H        2.14554088      -0.50694320       1.05493396
H        0.09409931       1.77093024      -0.23789467
H       -1.27993116      -0.31334085       1.56489103
H       -1.94211540       1.32684182       1.11461668
H       -1.85134526       0.65398863      -1.33387368
H       -1.21872623      -0.97856978      -0.83291704
13
Frame=9 idx=002312 GeodesicLength=0.2860622207536361 rxn_smarts="[O:1]=[C:2]([N:3]([C:4]1([H:9])[C:5]([H:10])([H:11])[C:6]1([H:12])[H:13])[H:8])[H:7]>>[O:1](/[C:2](=[N:3]/[C:4]1([H:9])[C:5]([H:10])([H:11])[C:6]1([H:12])[H:13])[H:7])[H:8]"
O        2.67244744      -1.33863027       0.09765948
C        1.70385692      -0.77988463      -0.52638938
N        1.08473892      -0.00587431       0.32492800
C       -0.09492394       0.73752846       0.03035814
C       -1.33041930       0.47974171       0.83006064
C       -1.27830817       0.07737256      -0.61599521
H        1.28538605      -1.11205517      -1.47691640
H        2.14639917      -0.51159814       1.06583677
H        0.09429369       1.77139563      -0.23885455
H       -1.27921357      -0.31278461       1.56486952
H       -1.94247511       1.32605112       1.11170136
H       -1.84771111       0.64983289      -1.33591393
H       -1.21407101      -0.98109526      -0.83134445
13
Frame=10 idx=002312 GeodesicLength=0.31791512312636994 rxn_smarts="[O:1]=[C:2]([N:3]([C:4]1([H:9])[C:5]([H:10])([H:11])[C:6]1([H:12])[H:13])[H:8])[H:7]>>[O:1](/[C:2](=[N:3]/[C:4]1([H:9])[C:5]([H:10])([H:11])[C:6]1([H:12])[H:13])[H:7])[H:8]"
O        2.66918156      -1.33965750       0.09173071
C        1.70380383      -0.77326027      -0.53117144
N        1.08773764      -0.00262581       0.32751301
C       -0.09317430       0.73793974       0.03047747
C       -1.32915203       0.47951687       0.82909381
C       -1.27484502       0.07518692      -0.61637120
H        1.26998346      -1.10742557      -1.47435337
H        2.14682332      -0.51676352       1.07694388
H        0.09455356       1.77178848      -0.23989229
H       -1.27850250      -0.31214303       1.56488928
H       -1.94276334       1.32536501       1.10878030
H       -1.84409887       0.64569584      -1.33793836
H       -1.20954730      -0.98361714      -0.82970179
13
Frame=11 idx=002312 GeodesicLength=0.3497823309749138 rxn_smarts="[O:1]=[C:2]([N:3]([C:4]1([H:9])[C:5]([H:10])([H:11])[C:6]1([H:12])[H:13])[H:8])[H:7]>>[O:1](/[C:2](=[N:3]/[C:4]1([H:9])[C:5]([H:10])([H:11])[C:6]1([H:12])[H:13])[H:7])[H:8]"
O        2.66620294      -1.34020213       0.08567888
C        1.70362651      -0.76682317      -0.53597188
N        1.09071279       0.00053371       0.32999784
C       -0.09142426       0.73831315       0.03055956
C       -1.32786428       0.47933642       0.82814493
C       -1.27143907       0.07300663      -0.61671408
H        1.25483896      -1.10275096      -1.47176485
H        2.14689865      -0.52228194       1.08819685
H        0.09485651       1.77212183      -0.24100741
H       -1.27777255      -0.31143707       1.56494609
H       -1.94298120       1.32475412       1.10587022
H       -1.84052295       0.64156660      -1.33993459
H       -1.20513205      -0.98613718      -0.82800156
13
Frame=12 idx=002312 GeodesicLength=0.3816582882689315 rxn_smarts="[O:1]=[C:2]([N:3]([C:4]1([H:9])[C:5]([H:10])([H:11])[C:6]1([H:12])[H:13])[H:8])[H:7]>>[O:1](/[C:2](=[N:3]/[C:4]1([H:9])[C:5]([H:10])([H:11])[C:6]1([H:12])[H:13])[H:7])[H:8]"
O        2.66354974      -1.34022744       0.07950358
C        1.70332436      -0.76057786      -0.54079018
N        1.09365451       0.00358393       0.33239161
C       -0.08967418       0.73864244       0.03060977
C       -1.32656249       0.47919488       0.82721071
C       -1.26809389       0.07084519      -0.61703256
H        1.23992361      -1.09810949      -1.46912679
H        2.14665671      -0.52811114       1.09957717
H        0.09521213       1.77239191      -0.24217840
H       -1.27704335      -0.31068334       1.56502527
H       -1.94312675       1.32421578       1.10297881
H       -1.83698290       0.63747464      -1.34190198
H       -1.20083751      -0.98863949      -0.82626701
13
Frame=13 idx=002312 GeodesicLength=0.4135366930456542 rxn_smarts="[O:1]=[C:2]([N:3]([C:4]1([H:9])[C:5]([H:10])([H:11])[C:6]1([H:12])[H:13])[H:8])[H:7]>>[O:1](/[C:2](=[N:3]/[C:4]1([H:9])[C:5]([H:10])([H:11])[C:6]1([H:12])[H:13])[H:7])[H:8]"
O        2.66123908      -1.33972154       0.07321599
C        1.70289766      -0.75452700      -0.54562699
N        1.09655471       0.00650821       0.33470156
C       -0.08792468       0.73892252       0.03063256
C       -1.32525210       0.47908584       0.82628843
C       -1.26481264       0.06871408      -0.61733476
H        1.22521531      -1.09356225      -1.46642138
H        2.14613841      -0.53419807       1.11106266
H        0.09562762       1.77259635      -0.24338589
H       -1.27633104      -0.30989871       1.56511356
H       -1.94319891       1.32374529       1.10011405
H       -1.83347961       0.63344565      -1.34383969
H       -1.19667380      -0.99111036      -0.82452011
13
Frame=14 idx=002312 GeodesicLength=0.44541185822194773 rxn_smarts="[O:1]=[C:2]([N:3]([C:4]1([H:9])[C:5]([H:10])([H:11])[C:6]1([H:12])[H:13])[H:8])[H:7]>>[O:1](/[C:2](=[N:3]/[C:4]1([H:9])[C:5]([H:10])([H:11])[C:6]1([H:12])[H:13])[H:7])[H:8]"
O        2.65928213      -1.33867856       0.06682780
C        1.70234829      -0.74866975      -0.55048452
N        1.09940669       0.00929289       0.33693350
C       -0.08617636       0.73914933       0.03063143
C       -1.32393763       0.47900388       0.82537574
C       -1.26159803       0.06662262      -0.61762765
H        1.21069591      -1.08915992      -1.46363374
H        2.14537999      -0.54049780       1.12263461
H        0.09610846       1.77273365      -0.24461358
H       -1.27564874      -0.30909716       1.56519997
H       -1.94319683       1.32333874       1.09728264
H       -1.83001466       0.62950080      -1.34574692
H       -1.19264922      -0.99353872      -0.82277927
13
Frame=15 idx=002312 GeodesicLength=0.47728079662052064 rxn_smarts="[O:1]=[C:2]([N:3]([C:4]1([H:9])[C:5]([H:10])([H:11])[C:6]1([H:12])[H:13])[H:8])[H:7]>>[O:1](/[C:2](=[N:3]/[C:4]1([H:9])[C:5]([H:10])([H:11])[C:6]1([H:12])[H:13])[H:7])[H:8]"
O        2.65772389      -1.33705274       0.06033325
C        1.70167658      -0.74300791      -0.55536497
N        1.10220167       0.01191950       0.33909425
C       -0.08442935       0.73931780       0.03061016
C       -1.32262436       0.47894383       0.82446885
C       -1.25845400       0.06458572      -0.61792138
H        1.19633192      -1.08498899      -1.46072634
H        2.14441040      -0.54697968       1.13428007
H        0.09666457       1.77280189      -0.24584038
H       -1.27501564      -0.30829690       1.56526778
H       -1.94311740       1.32299407       1.09449211
H       -1.82659071       0.62567086      -1.34762312
H       -1.18877756      -0.99590746      -0.82107029
13
Frame=16 idx=002312 GeodesicLength=0.5091393473110337 rxn_smarts="[O:1]=[C:2]([N:3]([C:4]1([H:9])[C:5]([H:10])([H:11])[C:6]1([H:12])[H:13])[H:8])[H:7]>>[O:1](/[C:2](=[N:3]/[C:4]1([H:9])[C:5]([H:10])([H:11])[C:6]1([H:12])[H:13])[H:7])[H:8]"
O        2.65659454      -1.33481405       0.05373344
C        1.70088205      -0.73754449      -0.56026985
N        1.10493148       0.01437104       0.34119000
C       -0.08268403       0.73942305       0.03057212
C       -1.32131726       0.47890001       0.82356425
C       -1.25538435       0.06261694      -0.61822572
H        1.18209600      -1.08112308      -1.45766626
H        2.14326737      -0.55360441       1.14598331
H        0.09730467       1.77279939      -0.24704642
H       -1.27444952      -0.30751626       1.56530094
H       -1.94295791       1.32270841       1.09174993
H       -1.82321109       0.62198448      -1.34946763
H       -1.18507194      -0.99820102      -0.81941811
