13
Frame=0 idx=002088 GeodesicLength=0.0 rxn_smarts="[C:1]([c:2]1[c:3]([H:10])[c:4]([H:11])[c:5]([H:12])[n:6]1[H:13])([H:7])([H:8])[H:9]>>[C:1]([C@@:2]1([H:13])[C:3]([H:10])=[C:4]([H:11])[C:5]([H:12])=[N:6]1)([H:7])([H:8])[H:9]"
C        1.89972198      -0.10943947      -0.23733151
C        0.43538189      -0.05465212       0.06610480
C       -0.40529722       1.05837202       0.20437870
C       -1.70867824       0.60833255       0.05498684
C       -1.65158118      -0.76646886      -0.14900085
N       -0.38476386      -1.21819674      -0.19174355
H        2.29951989      -1.10214705      -0.03071029
H        2.07519633       0.10665752      -1.29305316
H        2.44872431       0.62033180       0.35795793
H       -0.08046688       2.07247046       0.38409969
H       -2.60814900       1.20280235       0.12492201
H       -2.47310269      -1.46482373      -0.21993412
H        0.15349463      -0.95323875       0.92932347
13
Frame=1 idx=002088 GeodesicLength=0.04135030589472882 rxn_smarts="[C:1]([c:2]1[c:3]([H:10])[c:4]([H:11])[c:5]([H:12])[n:6]1[H:13])([H:7])([H:8])[H:9]>>[C:1]([C@@:2]1([H:13])[C:3]([H:10])=[C:4]([H:11])[C:5]([H:12])=[N:6]1)([H:7])([H:8])[H:9]"
C        1.89664446      -0.10760544      -0.24044528
C        0.43581102      -0.05869764       0.08104481
C       -0.40454518       1.05675812       0.21838174
C       -1.70723382       0.61202474       0.05316663
C       -1.65131257      -0.76379219      -0.15473526
N       -0.38577810      -1.21527049      -0.18805057
H        2.30908333      -1.09143977      -0.01657228
H        2.05802375       0.08694323      -1.30259786
H        2.44677176       0.63936694       0.33200513
H       -0.07884293       2.06987513       0.40214299
H       -2.60567776       1.20946400       0.10859080
H       -2.47357723      -1.46063109      -0.23288518
H        0.16063327      -0.97699555       0.93995433
13
Frame=2 idx=002088 GeodesicLength=0.08270868650771794 rxn_smarts="[C:1]([c:2]1[c:3]([H:10])[c:4]([H:11])[c:5]([H:12])[n:6]1[H:13])([H:7])([H:8])[H:9]>>[C:1]([C@@:2]1([H:13])[C:3]([H:10])=[C:4]([H:11])[C:5]([H:12])=[N:6]1)([H:7])([H:8])[H:9]"
C        1.89334139      -0.10568475      -0.24355485
C        0.43621279      -0.06287071       0.09597096
C       -0.40381970       1.05504293       0.23241883
C       -1.70565311       0.61579880       0.05127155
C       -1.65099080      -0.76107598      -0.16024855
N       -0.38684434      -1.21241473      -0.18408948
H        2.31874708      -1.08015010      -0.00321776
H        2.04079521       0.06759124      -1.31141080
H        2.44394116       0.65788697       0.30605729
H       -0.07724003       2.06707833       0.42066169
H       -2.60265142       1.21653778       0.09088045
H       -2.47400172      -1.45641737      -0.24479166
H        0.16816349      -1.00132241       0.95005234
13
Frame=3 idx=002088 GeodesicLength=0.12406358629332641 rxn_smarts="[C:1]([c:2]1[c:3]([H:10])[c:4]([H:11])[c:5]([H:12])[n:6]1[H:13])([H:7])([H:8])[H:9]>>[C:1]([C@@:2]1([H:13])[C:3]([H:10])=[C:4]([H:11])[C:5]([H:12])=[N:6]1)([H:7])([H:8])[H:9]"
C        1.88983105      -0.10367870      -0.24658859
C        0.43657919      -0.06716411       0.11083475
C       -0.40313264       1.05323572       0.24641673
C       -1.70393916       0.61965674       0.04922472
C       -1.65062422      -0.75831756      -0.16566636
N       -0.38797128      -1.20962792      -0.17994016
H        2.32845942      -1.06834772       0.00933459
H        2.02364047       0.04873537      -1.31942206
H        2.44023384       0.67581664       0.28037191
H       -0.07566065       2.06414831       0.43922851
H       -2.59907355       1.22397826       0.07222942
H       -2.47440289      -1.45221322      -0.25554599
H        0.17606042      -1.02622180       0.95952253
13
Frame=4 idx=002088 GeodesicLength=0.16532614001868884 rxn_smarts="[C:1]([c:2]1[c:3]([H:10])[c:4]([H:11])[c:5]([H:12])[n:6]1[H:13])([H:7])([H:8])[H:9]>>[C:1]([C@@:2]1([H:13])[C:3]([H:10])=[C:4]([H:11])[C:5]([H:12])=[N:6]1)([H:7])([H:8])[H:9]"
C        1.88626788      -0.10174742      -0.24918474
C        0.43688790      -0.07146741       0.12531420
C       -0.40248813       1.05156401       0.25918122
C       -1.70202548       0.62385524       0.04552945
C       -1.65013128      -0.75534737      -0.17190910
N       -0.38910307      -1.20681754      -0.17577752
H        2.33811338      -1.05619188       0.02196140
H        2.00723755       0.02988721      -1.32629710
H        2.43566790       0.69311572       0.25537197
H       -0.07410200       2.06142895       0.45604351
H       -2.59547638       1.23082031       0.05734942
H       -2.47472360      -1.44791848      -0.26588368
H        0.18387533      -1.05118135       0.96830096
13
Frame=5 idx=002088 GeodesicLength=0.20663027080903765 rxn_smarts="[C:1]([c:2]1[c:3]([H:10])[c:4]([H:11])[c:5]([H:12])[n:6]1[H:13])([H:7])([H:8])[H:9]>>[C:1]([C@@:2]1([H:13])[C:3]([H:10])=[C:4]([H:11])[C:5]([H:12])=[N:6]1)([H:7])([H:8])[H:9]"
C        1.88234714      -0.09957542      -0.25206352
C        0.43717548      -0.07598828       0.14004259
C       -0.40189611       1.04957753       0.27309632
C       -1.70003222       0.62788891       0.04320709
C       -1.64966680      -0.75248333      -0.17710601
N       -0.39034993      -1.20413728      -0.17120691
H        2.34781895      -1.04348548       0.03288094
H        1.99027494       0.01212087      -1.33281359
H        2.43028857       0.70986244       0.23038516
H       -0.07260212       2.05823025       0.47474757
H       -2.59081764       1.23892434       0.03664191
H       -2.47511879      -1.44372410      -0.27421669
H        0.19257856      -1.07721044       0.97640514
13
Frame=6 idx=002088 GeodesicLength=0.24792021994598498 rxn_smarts="[C:1]([c:2]1[c:3]([H:10])[c:4]([H:11])[c:5]([H:12])[n:6]1[H:13])([H:7])([H:8])[H:9]>>[C:1]([C@@:2]1([H:13])[C:3]([H:10])=[C:4]([H:11])[C:5]([H:12])=[N:6]1)([H:7])([H:8])[H:9]"
C        1.87838550      -0.09747976      -0.25453493
C        0.43741370      -0.08048895       0.15440316
C       -0.40134333       1.04775001       0.28580281
C       -1.69781344       0.63222279       0.03925858
C       -1.64908422      -0.74946538      -0.18304360
N       -0.39162711      -1.20148522      -0.16653147
H        2.35745460      -1.03043593       0.04393662
H        1.97406061      -0.00574414      -1.33831584
H        2.42412241       0.72605568       0.20600604
H       -0.07114381       2.05523998       0.49189117
H       -2.58625185       1.24654409       0.01957793
H       -2.47546363      -1.43943001      -0.28229875
H        0.20129056      -1.10328317       0.98384829
13
Frame=7 idx=002088 GeodesicLength=0.2891767622947518 rxn_smarts="[C:1]([c:2]1[c:3]([H:10])[c:4]([H:11])[c:5]([H:12])[n:6]1[H:13])([H:7])([H:8])[H:9]>>[C:1]([C@@:2]1([H:13])[C:3]([H:10])=[C:4]([H:11])[C:5]([H:12])=[N:6]1)([H:7])([H:8])[H:9]"
C        1.87439684      -0.09545659      -0.25659048
C        0.43759038      -0.08495373       0.16840869
C       -0.40083526       1.04608668       0.29740298
C       -1.69536441       0.63683894       0.03388845
C       -1.64837651      -0.74628778      -0.18970243
N       -0.39294043      -1.19884408      -0.16179122
H        2.36695485      -1.01714058       0.05495732
H        1.95861911      -0.02348640      -1.34280834
H        2.41727617       0.74156784       0.18243738
H       -0.06970448       2.05251263       0.50732576
H       -2.58190074       1.25366687       0.00582230
H       -2.47576731      -1.43504880      -0.28992647
H        0.21005180      -1.12945500       0.99057605
13
Frame=8 idx=002088 GeodesicLength=0.33020750651228115 rxn_smarts="[C:1]([c:2]1[c:3]([H:10])[c:4]([H:11])[c:5]([H:12])[n:6]1[H:13])([H:7])([H:8])[H:9]>>[C:1]([C@@:2]1([H:13])[C:3]([H:10])=[C:4]([H:11])[C:5]([H:12])=[N:6]1)([H:7])([H:8])[H:9]"
C        1.87051446      -0.09364801      -0.25799564
C        0.43768576      -0.08927557       0.18190022
C       -0.40034142       1.04480083       0.30709528
C       -1.69262484       0.64191476       0.02617481
C       -1.64745652      -0.74283656      -0.19770744
N       -0.39424703      -1.19612117      -0.15710044
H        2.37616952      -1.00379084       0.06652725
H        1.94437888      -0.04135665      -1.34611049
H        2.40994411       0.75627393       0.16000433
H       -0.06821920       2.05036957       0.51969593
H       -2.57836231       1.25949574      -0.00139187
H       -2.47593509      -1.43050711      -0.29769356
H        0.21849369      -1.15531892       0.99660161
13
Frame=9 idx=002088 GeodesicLength=0.3711733718137691 rxn_smarts="[C:1]([c:2]1[c:3]([H:10])[c:4]([H:11])[c:5]([H:12])[n:6]1[H:13])([H:7])([H:8])[H:9]>>[C:1]([C@@:2]1([H:13])[C:3]([H:10])=[C:4]([H:11])[C:5]([H:12])=[N:6]1)([H:7])([H:8])[H:9]"
C        1.86660878      -0.09191916      -0.25906195
C        0.43771482      -0.09352468       0.19513219
C       -0.39988455       1.04369566       0.31585103
C       -1.68964208       0.64721452       0.01734921
C       -1.64638990      -0.73925741      -0.20625174
N       -0.39561117      -1.19340818      -0.15223612
H        2.38522106      -0.99023323       0.07799779
H        1.93079412      -0.05912112      -1.34855892
H        2.40210471       0.77030856       0.13825354
H       -0.06674288       2.04848327       0.53069862
H       -2.57521342       1.26488374      -0.00601261
H       -2.47604576      -1.42583285      -0.30513534
H        0.22708629      -1.18128910       1.00197431
13
Frame=10 idx=002088 GeodesicLength=0.41217355784601195 rxn_smarts="[C:1]([c:2]1[c:3]([H:10])[c:4]([H:11])[c:5]([H:12])[n:6]1[H:13])([H:7])([H:8])[H:9]>>[C:1]([C@@:2]1([H:13])[C:3]([H:10])=[C:4]([H:11])[C:5]([H:12])=[N:6]1)([H:7])([H:8])[H:9]"
C        1.86247361      -0.09007912      -0.26015899
C        0.43769073      -0.09785563       0.20845893
C       -0.39949694       1.04249055       0.32496832
C       -1.68649880       0.65251148       0.00897286
C       -1.64526653      -0.73569001      -0.21436120
N       -0.39707440      -1.19075822      -0.14695460
H        2.39415263      -0.97636317       0.08847198
H        1.91709729      -0.07621142      -1.35058862
H        2.39367895       0.78383000       0.11683910
H       -0.06532812       2.04644864       0.54227089
H       -2.57155797       1.27076900      -0.01315048
H       -2.47621536      -1.42114693      -0.31137676
H        0.23634491      -1.20794518       1.00660857
13
Frame=11 idx=002088 GeodesicLength=0.4532194617434744 rxn_smarts="[C:1]([c:2]1[c:3]([H:10])[c:4]([H:11])[c:5]([H:12])[n:6]1[H:13])([H:7])([H:8])[H:9]>>[C:1]([C@@:2]1([H:13])[C:3]([H:10])=[C:4]([H:11])[C:5]([H:12])=[N:6]1)([H:7])([H:8])[H:9]"
C        1.85816246      -0.08820216      -0.26119597
C        0.43761942      -0.10221734       0.22180767
C       -0.39916477       1.04128359       0.33400869
C       -1.68310521       0.65792888       0.00031216
C       -1.64404315      -0.73209218      -0.22233622
N       -0.39863207      -1.18816942      -0.14120710
H        2.40297686      -0.96214054       0.09844322
H        1.90346076      -0.09309939      -1.35214175
H        2.38467170       0.79695486       0.09559689
H       -0.06398986       2.04434039       0.55409173
H       -2.56768533       1.27683300      -0.02098391
H       -2.47640339      -1.41636713      -0.31696664
H        0.24613258      -1.23505256       1.01057124
13
Frame=12 idx=002088 GeodesicLength=0.49416001932392317 rxn_smarts="[C:1]([c:2]1[c:3]([H:10])[c:4]([H:11])[c:5]([H:12])[n:6]1[H:13])([H:7])([H:8])[H:9]>>[C:1]([C@@:2]1([H:13])[C:3]([H:10])=[C:4]([H:11])[C:5]([H:12])=[N:6]1)([H:7])([H:8])[H:9]"
C        1.85372389      -0.08634897      -0.26205312
C        0.43748604      -0.10653834       0.23512038
C       -0.39888264       1.04016523       0.34268158
C       -1.67952010       0.66343676      -0.00868212
C       -1.64268857      -0.72843181      -0.23040803
N       -0.40028049      -1.18561328      -0.13502992
H        2.41161072      -0.94767203       0.10807763
H        1.89006591      -0.10979140      -1.35309142
H        2.37517160       0.80953328       0.07476439
H       -0.06268229       2.04236177       0.56529278
H       -2.56379313       1.28275610      -0.02822689
H       -2.47654585      -1.41143059      -0.32227399
H        0.25633494      -1.26242672       1.01382874
13
Frame=13 idx=002088 GeodesicLength=0.5351438421186131 rxn_smarts="[C:1]([c:2]1[c:3]([H:10])[c:4]([H:11])[c:5]([H:12])[n:6]1[H:13])([H:7])([H:8])[H:9]>>[C:1]([C@@:2]1([H:13])[C:3]([H:10])=[C:4]([H:11])[C:5]([H:12])=[N:6]1)([H:7])([H:8])[H:9]"
C        1.84910651      -0.08446961      -0.26281790
C        0.43729703      -0.11087015       0.24850344
C       -0.39865954       1.03906911       0.35130636
C       -1.67571573       0.66903438      -0.01774341
C       -1.64121893      -0.72474224      -0.23837487
N       -0.40204095      -1.18311172      -0.12831613
H        2.42008040      -0.93292118       0.11723370
H        1.87671498      -0.12625242      -1.35357673
H        2.36514783       0.82170416       0.05419198
H       -0.06142473       2.04041004       0.57638139
H       -2.55967342       1.28877633      -0.03598534
H       -2.47669710      -1.40639226      -0.32716708
H        0.26708367      -1.29023444       1.01636460
13
Frame=14 idx=002088 GeodesicLength=0.5761201252508528 rxn_smarts="[C:1]([c:2]1[c:3]([H:10])[c:4]([H:11])[c:5]([H:12])[n:6]1[H:13])([H:7])([H:8])[H:9]>>[C:1]([C@@:2]1([H:13])[C:3]([H:10])=[C:4]([H:11])[C:5]([H:12])=[N:6]1)([H:7])([H:8])[H:9]"
C        1.84425151      -0.08255396      -0.26356178
C        0.43706790      -0.11522069       0.26204261
C       -0.39850474       1.03794824       0.36009775
C       -1.67170866       0.67464624      -0.02665521
C       -1.63962671      -0.72104745      -0.24606125
N       -0.40392230      -1.18068647      -0.12092434
H        2.42841232      -0.91778790       0.12586258
H        1.86323539      -0.14258460      -1.35365126
H        2.35450934       0.83352327       0.03363987
H       -0.06024761       2.03839877       0.58777018
H       -2.55515573       1.29505460      -0.04496283
H       -2.47681581      -1.40119032      -0.33175504
H        0.27850511      -1.31849973       1.01815872
13
Frame=15 idx=002088 GeodesicLength=0.6171278571150357 rxn_smarts="[C:1]([c:2]1[c:3]([H:10])[c:4]([H:11])[c:5]([H:12])[n:6]1[H:13])([H:7])([H:8])[H:9]>>[C:1]([C@@:2]1([H:13])[C:3]([H:10])=[C:4]([H:11])[C:5]([H:12])=[N:6]1)([H:7])([H:8])[H:9]"
C        1.83920048      -0.08063571      -0.26422084
C        0.43679498      -0.11955378       0.27571351
C       -0.39840462       1.03687173       0.36885454
C       -1.66748084       0.68031889      -0.03560069
C       -1.63789235      -0.71733045      -0.25365251
N       -0.40594263      -1.17832962      -0.11283203
H        2.43658003      -0.90231976       0.13413679
H        1.84973149      -0.15889045      -1.35327679
H        2.34332830       0.84498272       0.01316488
H       -0.05911528       2.03644263       0.59905778
H       -2.55041619       1.30139620      -0.05426430
H       -2.47690139      -1.39583141      -0.33630728
H        0.29051802      -1.34712099       1.01922694
13
Frame=16 idx=002088 GeodesicLength=0.6581333520575866 rxn_smarts="[C:1]([c:2]1[c:3]([H:10])[c:4]([H:11])[c:5]([H:12])[n:6]1[H:13])([H:7])([H:8])[H:9]>>[C:1]([C@@:2]1([H:13])[C:3]([H:10])=[C:4]([H:11])[C:5]([H:12])=[N:6]1)([H:7])([H:8])[H:9]"
C        1.83394730      -0.07874567      -0.26476772
C        0.43647441      -0.12383989       0.28951731
C       -0.39836495       1.03586950       0.37750123
C       -1.66302982       0.68605120      -0.04458943
C       -1.63596281      -0.71356945      -0.26122276
N       -0.40809537      -1.17601745      -0.10399137
H        2.44454491      -0.88654318       0.14211186
H        1.83622165      -0.17524157      -1.35241137
H        2.33159836       0.85604030      -0.00722137
H       -0.05803909       2.03458800       0.61004675
H       -2.54551791       1.30771093      -0.06352249
H       -2.47687998      -1.39028116      -0.34099504
H        0.30310331      -1.37602154       1.01954441
