9
Frame=0 idx=005717 GeodesicLength=0.0 rxn_smarts="[N:1]([c:2]1[n:3][o:4][c:5]([H:9])[n:6]1)([H:7])[H:8]>>[C:5](#[N:6])[H:9].[N:1]([C:2]#[N+:3][O-:4])([H:7])[H:8]"
N        1.89903427      -0.17229731       0.01840126
C        0.60542968      -0.44326775       0.12863500
N       -0.26622425      -1.23013971       0.39334125
O       -1.50928428      -1.22076868       0.41182030
C       -1.75071413       0.75100837      -0.20176474
N       -0.68633067       1.19591913      -0.36042476
H        2.27564230       0.47885407       0.68885847
H        2.24957198      -0.04446767      -0.91780162
H       -2.81712487       0.68515959      -0.16106516
9
Frame=1 idx=005717 GeodesicLength=0.042183642772602135 rxn_smarts="[N:1]([c:2]1[n:3][o:4][c:5]([H:9])[n:6]1)([H:7])[H:8]>>[C:5](#[N:6])[H:9].[N:1]([C:2]#[N+:3][O-:4])([H:7])[H:8]"
N        1.89468903      -0.16679550       0.02839083
C        0.59832299      -0.43974559       0.11824317
N       -0.26617310      -1.24182643       0.36631628
O       -1.51258259      -1.21903937       0.40075481
C       -1.74234788       0.75572848      -0.16129526
N       -0.67951577       1.19953093      -0.35319469
H        2.24592596       0.52802335       0.66808426
H        2.27093894      -0.09599702      -0.90373432
H       -2.80925759       0.68012115      -0.16356507
9
Frame=2 idx=005717 GeodesicLength=0.08415842254368001 rxn_smarts="[N:1]([c:2]1[n:3][o:4][c:5]([H:9])[n:6]1)([H:7])[H:8]>>[C:5](#[N:6])[H:9].[N:1]([C:2]#[N+:3][O-:4])([H:7])[H:8]"
N        1.88990476      -0.16127295       0.03625592
C        0.59108429      -0.43527807       0.10869043
N       -0.26606782      -1.25142109       0.34253237
O       -1.51557870      -1.21673395       0.39199103
C       -1.73469436       0.75746778      -0.12773436
N       -0.67346189       1.20615262      -0.33588818
H        2.21983838       0.57196663       0.64357691
H        2.28953679      -0.14461467      -0.88849039
H       -2.80056145       0.67373370      -0.17093373
9
Frame=3 idx=005717 GeodesicLength=0.12586101846787806 rxn_smarts="[N:1]([c:2]1[n:3][o:4][c:5]([H:9])[n:6]1)([H:7])[H:8]>>[C:5](#[N:6])[H:9].[N:1]([C:2]#[N+:3][O-:4])([H:7])[H:8]"
N        1.88486725      -0.15600085       0.04229633
C        0.58375920      -0.43035477       0.09894602
N       -0.26596021      -1.25953251       0.32076081
O       -1.51825149      -1.21359690       0.38676617
C       -1.72784502       0.75708063      -0.09928104
N       -0.66766158       1.21460964      -0.31166865
H        2.19650312       0.61075419       0.61698848
H        2.30581244      -0.18927231      -0.87230936
H       -2.79122372       0.66631288      -0.18249874
9
Frame=4 idx=005717 GeodesicLength=0.1670832855122794 rxn_smarts="[N:1]([c:2]1[n:3][o:4][c:5]([H:9])[n:6]1)([H:7])[H:8]>>[C:5](#[N:6])[H:9].[N:1]([C:2]#[N+:3][O-:4])([H:7])[H:8]"
N        1.87979696      -0.15069930       0.04749316
C        0.57653170      -0.42471618       0.09197292
N       -0.26569846      -1.26627417       0.30285168
O       -1.52096759      -1.21125448       0.37928189
C       -1.72139024       0.75500967      -0.07502270
N       -0.66178436       1.22310922      -0.28521593
H        2.17648104       0.64592188       0.58848783
H        2.31841855      -0.23051186      -0.85570054
H       -2.78138760       0.65941521      -0.19414832
9
Frame=5 idx=005717 GeodesicLength=0.20811499645148077 rxn_smarts="[N:1]([c:2]1[n:3][o:4][c:5]([H:9])[n:6]1)([H:7])[H:8]>>[C:5](#[N:6])[H:9].[N:1]([C:2]#[N+:3][O-:4])([H:7])[H:8]"
N        1.87463423      -0.14509583       0.05275717
C        0.56934624      -0.41897759       0.08500426
N       -0.26535148      -1.27245386       0.28551737
O       -1.52362604      -1.20923260       0.37077225
C       -1.71514529       0.75209836      -0.05262402
N       -0.65614613       1.23061471      -0.26072518
H        2.15730772       0.67910073       0.55883318
H        2.33036878      -0.26973558      -0.83663483
H       -2.77138803       0.65368167      -0.20290021
9
Frame=6 idx=005717 GeodesicLength=0.24907155983870255 rxn_smarts="[N:1]([c:2]1[n:3][o:4][c:5]([H:9])[n:6]1)([H:7])[H:8]>>[C:5](#[N:6])[H:9].[N:1]([C:2]#[N+:3][O-:4])([H:7])[H:8]"
N        1.86926750      -0.13932512       0.05782201
C        0.56209176      -0.41333732       0.07641945
N       -0.26505981      -1.27827454       0.26719694
O       -1.52603452      -1.20677088       0.36420473
C       -1.70919011       0.74865620      -0.03136385
N       -0.65080355       1.23764536      -0.23689094
H        2.13844375       0.71001935       0.52846962
H        2.34246067      -0.30692789      -0.81509519
H       -2.76117569       0.64831484      -0.21076277
9
Frame=7 idx=005717 GeodesicLength=0.2900362138671152 rxn_smarts="[N:1]([c:2]1[n:3][o:4][c:5]([H:9])[n:6]1)([H:7])[H:8]>>[C:5](#[N:6])[H:9].[N:1]([C:2]#[N+:3][O-:4])([H:7])[H:8]"
N        1.86373151      -0.13305237       0.06305222
C        0.55483506      -0.40742943       0.06694184
N       -0.26459222      -1.28346785       0.24904762
O       -1.52834720      -1.20475122       0.35600326
C       -1.70355203       0.74473949      -0.01054207
N       -0.64591906       1.24419206      -0.21383497
H        2.12001642       0.74014264       0.49574697
H        2.35494922      -0.34409108      -0.79010981
H       -2.75112171       0.64371777      -0.21630506
9
Frame=8 idx=005717 GeodesicLength=0.3309110060032187 rxn_smarts="[N:1]([c:2]1[n:3][o:4][c:5]([H:9])[n:6]1)([H:7])[H:8]>>[C:5](#[N:6])[H:9].[N:1]([C:2]#[N+:3][O-:4])([H:7])[H:8]"
N        1.85807309      -0.12636025       0.06809834
C        0.54761230      -0.40117044       0.05753187
N       -0.26389375      -1.28802332       0.23192122
O       -1.53063983      -1.20315890       0.34620593
C       -1.69821612       0.74027561       0.00971230
N       -0.64131385       1.25052223      -0.18997424
H        2.10273844       0.76894510       0.46050519
H        2.36666222      -0.38055714      -0.76267638
H       -2.74102249       0.63952711      -0.22132422
9
Frame=9 idx=005717 GeodesicLength=0.3716887352547494 rxn_smarts="[N:1]([c:2]1[n:3][o:4][c:5]([H:9])[n:6]1)([H:7])[H:8]>>[C:5](#[N:6])[H:9].[N:1]([C:2]#[N+:3][O-:4])([H:7])[H:8]"
N        1.85210439      -0.11957599       0.07317476
C        0.54032671      -0.39515590       0.04575837
N       -0.26330666      -1.29238441       0.21323656
O       -1.53262718      -1.20107890       0.33855063
C       -1.69289390       0.73551393       0.02918474
N       -0.63679976       1.25627610      -0.16753158
H        2.08549369       0.79550624       0.42478369
H        2.37862977      -0.41480534      -0.73232350
H       -2.73092705       0.63570426      -0.22483367
9
Frame=10 idx=005717 GeodesicLength=0.41226924392978626 rxn_smarts="[N:1]([c:2]1[n:3][o:4][c:5]([H:9])[n:6]1)([H:7])[H:8]>>[C:5](#[N:6])[H:9].[N:1]([C:2]#[N+:3][O-:4])([H:7])[H:8]"
N        1.84601273      -0.11259556       0.07770877
C        0.53306672      -0.38894190       0.03447643
N       -0.26257030      -1.29625254       0.19600014
O       -1.53459817      -1.19917064       0.33059852
C       -1.68773156       0.73024392       0.04777105
N       -0.63222747       1.26185968      -0.14336142
H        2.06973851       0.81986510       0.38758389
H        2.38871906      -0.44691849      -0.70118570
H       -2.72040952       0.63191042      -0.22959168
9
Frame=11 idx=005717 GeodesicLength=0.4527843763244718 rxn_smarts="[N:1]([c:2]1[n:3][o:4][c:5]([H:9])[n:6]1)([H:7])[H:8]>>[C:5](#[N:6])[H:9].[N:1]([C:2]#[N+:3][O-:4])([H:7])[H:8]"
N        1.83963614      -0.10528821       0.08200284
C        0.52574070      -0.38259214       0.02208808
N       -0.26175553      -1.29972943       0.17874661
O       -1.53642231      -1.19728946       0.32296853
C       -1.68275262       0.72461633       0.06603027
N       -0.62774915       1.26722515      -0.11796163
H        2.05467293       0.84257919       0.34843187
H        2.39820676      -0.47777892      -0.66767216
H       -2.70957691       0.62825749      -0.23463441
9
Frame=12 idx=005717 GeodesicLength=0.49334007453751266 rxn_smarts="[N:1]([c:2]1[n:3][o:4][c:5]([H:9])[n:6]1)([H:7])[H:8]>>[C:5](#[N:6])[H:9].[N:1]([C:2]#[N+:3][O-:4])([H:7])[H:8]"
N        1.83267612      -0.09756548       0.08749117
C        0.51839516      -0.37652023       0.00552817
N       -0.26108956      -1.30318172       0.15764564
O       -1.53777332      -1.19521587       0.31609496
C       -1.67741848       0.71893885       0.08450288
N       -0.62341141       1.27164630      -0.09730673
H        2.03886980       0.86410911       0.30775295
H        2.40942717      -0.50783219      -0.62780559
H       -2.69967548       0.62562123      -0.23390344
9
Frame=13 idx=005717 GeodesicLength=0.5337868241685262 rxn_smarts="[N:1]([c:2]1[n:3][o:4][c:5]([H:9])[n:6]1)([H:7])[H:8]>>[C:5](#[N:6])[H:9].[N:1]([C:2]#[N+:3][O-:4])([H:7])[H:8]"
N        1.82557983      -0.08871558       0.09221296
C        0.51111745      -0.36950926      -0.00872454
N       -0.25975731      -1.30588373       0.13943602
O       -1.53933211      -1.19413401       0.30521949
C       -1.67260946       0.71244868       0.10311849
N       -0.61925432       1.27627285      -0.07067929
H        2.02532861       0.88473752       0.26103622
H        2.41795728      -0.53819568      -0.58560511
H       -2.68902996       0.62297921      -0.23601425
9
Frame=14 idx=005717 GeodesicLength=0.5743515566922308 rxn_smarts="[N:1]([c:2]1[n:3][o:4][c:5]([H:9])[n:6]1)([H:7])[H:8]>>[C:5](#[N:6])[H:9].[N:1]([C:2]#[N+:3][O-:4])([H:7])[H:8]"
N        1.81744829      -0.07931538       0.09844735
C        0.50384303      -0.36286724      -0.02854583
N       -0.25866778      -1.30858278       0.11561122
O       -1.54010742      -1.19267996       0.29581693
C       -1.66704204       0.70592503       0.12231501
N       -0.61499737       1.27996352      -0.04965405
H        2.01090464       0.90345459       0.21226083
H        2.42807583      -0.56717312      -0.53499996
H       -2.67945717       0.62127533      -0.23125150
9
Frame=15 idx=005717 GeodesicLength=0.6148424812392032 rxn_smarts="[N:1]([c:2]1[n:3][o:4][c:5]([H:9])[n:6]1)([H:7])[H:8]>>[C:5](#[N:6])[H:9].[N:1]([C:2]#[N+:3][O-:4])([H:7])[H:8]"
N        1.80913166      -0.06893302       0.10297487
C        0.49644512      -0.35564682      -0.04604673
N       -0.25707424      -1.31075895       0.09600421
O       -1.54121886      -1.19182644       0.28465003
C       -1.66194079       0.69859582       0.14125837
N       -0.61041426       1.28365317      -0.02058390
H        1.99871204       0.91970632       0.15900480
H        2.43434035      -0.59403306      -0.48464562
H       -2.66798101       0.61924298      -0.23261602
9
Frame=16 idx=005717 GeodesicLength=0.6553533536783342 rxn_smarts="[N:1]([c:2]1[n:3][o:4][c:5]([H:9])[n:6]1)([H:7])[H:8]>>[C:5](#[N:6])[H:9].[N:1]([C:2]#[N+:3][O-:4])([H:7])[H:8]"
N        1.80036957      -0.05852840       0.10768339
C        0.48918746      -0.34909584      -0.06437245
N       -0.25556164      -1.31314429       0.07627012
O       -1.54218543      -1.19073091       0.27437315
C       -1.65595213       0.69109678       0.15933104
N       -0.60496675       1.28620526       0.00500400
H        1.98682689       0.93246615       0.10756743
H        2.43863080      -0.61613961      -0.43395516
H       -2.65634876       0.61787086      -0.23190152
