12
Frame=0 idx=001079 GeodesicLength=0.0 rxn_smarts="[N:1]([c:2]1[c:3]([H:9])[c:4]([H:10])[c:5]([H:11])[n:6]1[H:12])([H:7])[H:8]>>[N:1]([C@:2]1([H:9])[C-:3]=[C:4]([H:10])[C+:5]([H:11])[N:6]1[H:12])([H:7])[H:8]"
N        1.96820426       0.08893869       0.40816250
C        0.61662886       0.17245948       0.00542526
C       -0.26047704       1.32130949       0.13669792
C       -1.55361768       0.70250263       0.04233323
C       -1.44504287      -0.66327655      -0.00113277
N       -0.14410319      -1.01500904      -0.00197538
H        2.59871606      -0.17736186      -0.33339215
H        2.25722217       0.97473918       0.79584093
H        0.44640222       0.72752197      -1.03879753
H       -2.49255724       1.23587621       0.03219124
H       -2.21578781      -1.41953278      -0.07589814
H        0.22441227      -1.94816737       0.03054489
12
Frame=1 idx=001079 GeodesicLength=0.053069578606496665 rxn_smarts="[N:1]([c:2]1[c:3]([H:9])[c:4]([H:10])[c:5]([H:11])[n:6]1[H:12])([H:7])[H:8]>>[N:1]([C@:2]1([H:9])[C-:3]=[C:4]([H:10])[C+:5]([H:11])[N:6]1[H:12])([H:7])[H:8]"
N        1.96768445       0.07933486       0.40533813
C        0.61826806       0.16953100      -0.00565589
C       -0.25913121       1.31672478       0.12205850
C       -1.55305898       0.70249802       0.04210779
C       -1.44566923      -0.66461138       0.00561504
N       -0.14548847      -1.01658923      -0.00841934
H        2.60412484      -0.14877111      -0.34388442
H        2.24806771       0.94970230       0.83242781
H        0.45220587       0.74614535      -1.05516632
H       -2.49093887       1.23735541       0.01924406
H       -2.21817679      -1.42125003      -0.04094615
H        0.22211261      -1.95006994       0.02728080
12
Frame=2 idx=001079 GeodesicLength=0.1061315616900151 rxn_smarts="[N:1]([c:2]1[c:3]([H:9])[c:4]([H:10])[c:5]([H:11])[n:6]1[H:12])([H:7])[H:8]>>[N:1]([C@:2]1([H:9])[C-:3]=[C:4]([H:10])[C+:5]([H:11])[N:6]1[H:12])([H:7])[H:8]"
N        1.96715099       0.06991967       0.40213246
C        0.61987352       0.16650487      -0.01687565
C       -0.25781684       1.31202527       0.10746420
C       -1.55243908       0.70250144       0.04203572
C       -1.44620918      -0.66592436       0.01301073
N       -0.14694369      -1.01822992      -0.01451666
H        2.60933814      -0.11978245      -0.35291056
H        2.23840180       0.92357369       0.86727366
H        0.45800187       0.76532733      -1.07139333
H       -2.48925613       1.23854555       0.00636721
H       -2.21988895      -1.42245387      -0.00682699
H        0.21978755      -1.95200720       0.02423922
12
Frame=3 idx=001079 GeodesicLength=0.15918132871454316 rxn_smarts="[N:1]([c:2]1[c:3]([H:9])[c:4]([H:10])[c:5]([H:11])[n:6]1[H:12])([H:7])[H:8]>>[N:1]([C@:2]1([H:9])[C-:3]=[C:4]([H:10])[C+:5]([H:11])[N:6]1[H:12])([H:7])[H:8]"
N        1.96656281       0.06069717       0.39868662
C        0.62144913       0.16338789      -0.02828110
C       -0.25655594       1.30721690       0.09278643
C       -1.55176957       0.70252141       0.04177189
C       -1.44665351      -0.66719703       0.02064703
N       -0.14846187      -1.01992282      -0.02044512
H        2.61436778      -0.09058796      -0.36026536
H        2.22820586       0.89649984       0.90043251
H        0.46394973       0.78515321      -1.08749736
H       -2.48756222       1.23944180      -0.00612788
H       -2.22097357      -1.42323107       0.02712481
H        0.21744137      -1.95397933       0.02116754
12
Frame=4 idx=001079 GeodesicLength=0.21220605045784688 rxn_smarts="[N:1]([c:2]1[c:3]([H:9])[c:4]([H:10])[c:5]([H:11])[n:6]1[H:12])([H:7])[H:8]>>[N:1]([C@:2]1([H:9])[C-:3]=[C:4]([H:10])[C+:5]([H:11])[N:6]1[H:12])([H:7])[H:8]"
N        1.96594594       0.05170557       0.39499795
C        0.62299258       0.16017571      -0.03981233
C       -0.25535251       1.30229837       0.07801988
C       -1.55105238       0.70254647       0.04139740
C       -1.44699422      -0.66843021       0.02863448
N       -0.15003709      -1.02167096      -0.02599829
H        2.61914326      -0.06137253      -0.36602885
H        2.21761201       0.86871060       0.93171565
H        0.47001960       0.80557640      -1.10342615
H       -2.48587533       1.24004667      -0.01810858
H       -2.22147787      -1.42359617       0.06030956
H        0.21507601      -1.95598990       0.01829927
12
Frame=5 idx=001079 GeodesicLength=0.26519417244796206 rxn_smarts="[N:1]([c:2]1[c:3]([H:9])[c:4]([H:10])[c:5]([H:11])[n:6]1[H:12])([H:7])[H:8]>>[N:1]([C@:2]1([H:9])[C-:3]=[C:4]([H:10])[C+:5]([H:11])[N:6]1[H:12])([H:7])[H:8]"
N        1.96539673       0.04303797       0.39098123
C        0.62450797       0.15685409      -0.05134520
C       -0.25419976       1.29727645       0.06316365
C       -1.55028821       0.70257958       0.04123208
C       -1.44722389      -0.66960931       0.03741557
N       -0.15165530      -1.02348109      -0.03063571
H        2.62357888      -0.03238627      -0.37047443
H        2.20691120       0.84060171       0.96072249
H        0.47606670       0.82638691      -1.11915347
H       -2.48421520       1.24038231      -0.02921308
H       -2.22158186      -1.42360545       0.09088187
H        0.21270274      -1.95803691       0.01642499
12
Frame=6 idx=001079 GeodesicLength=0.3181044147755363 rxn_smarts="[N:1]([c:2]1[c:3]([H:9])[c:4]([H:10])[c:5]([H:11])[n:6]1[H:12])([H:7])[H:8]>>[N:1]([C@:2]1([H:9])[C-:3]=[C:4]([H:10])[C+:5]([H:11])[N:6]1[H:12])([H:7])[H:8]"
N        1.96492923       0.03482815       0.38665659
C        0.62600578       0.15339977      -0.06284641
C       -0.25306430       1.29215351       0.04796076
C       -1.54941458       0.70262361       0.04129729
C       -1.44728677      -0.67071568       0.04721746
N       -0.15328020      -1.02536519      -0.03391711
H        2.62761577      -0.00395699      -0.37368731
H        2.19625138       0.81271002       0.98714230
H        0.48206634       0.84730267      -1.13479890
H       -2.48257639       1.24050859      -0.03846839
H       -2.22158665      -1.42337027       0.11717971
H        0.21034041      -1.96011820       0.01626402
12
Frame=7 idx=001079 GeodesicLength=0.3709653226018215 rxn_smarts="[N:1]([c:2]1[c:3]([H:9])[c:4]([H:10])[c:5]([H:11])[n:6]1[H:12])([H:7])[H:8]>>[N:1]([C@:2]1([H:9])[C-:3]=[C:4]([H:10])[C+:5]([H:11])[N:6]1[H:12])([H:7])[H:8]"
N        1.96468211       0.02707239       0.38189290
C        0.62748678       0.14979178      -0.07416779
C       -0.25195212       1.28690852       0.03266406
C       -1.54844551       0.70269574       0.04207038
C       -1.44716924      -0.67170912       0.05869786
N       -0.15489521      -1.02731861      -0.03546724
H        2.63118451       0.02388437      -0.37615452
H        2.18597981       0.78519552       1.01088468
H        0.48781546       0.86828564      -1.15024094
H       -2.48094107       1.24043978      -0.04642280
H       -2.22176836      -1.42302258       0.13805297
H        0.20802284      -1.96222344       0.01819044
12
Frame=8 idx=001079 GeodesicLength=0.42379062421699676 rxn_smarts="[N:1]([c:2]1[c:3]([H:9])[c:4]([H:10])[c:5]([H:11])[n:6]1[H:12])([H:7])[H:8]>>[N:1]([C@:2]1([H:9])[C-:3]=[C:4]([H:10])[C+:5]([H:11])[N:6]1[H:12])([H:7])[H:8]"
N        1.96459528       0.01968997       0.37674960
C        0.62895260       0.14600850      -0.08542919
C       -0.25085903       1.28150931       0.01720872
C       -1.54735721       0.70278890       0.04330429
C       -1.44684293      -0.67257822       0.07163662
N       -0.15649400      -1.02934430      -0.03565751
H        2.63433460       0.05129253      -0.37785042
H        2.17596063       0.75791781       1.03239711
H        0.49345172       0.88950792      -1.16550662
H       -2.47928947       1.24018525      -0.05330415
H       -2.22220271      -1.42261881       0.15470801
H        0.20575052      -1.96435887       0.02174354
12
Frame=9 idx=001079 GeodesicLength=0.4766218325098869 rxn_smarts="[N:1]([c:2]1[c:3]([H:9])[c:4]([H:10])[c:5]([H:11])[n:6]1[H:12])([H:7])[H:8]>>[N:1]([C@:2]1([H:9])[C-:3]=[C:4]([H:10])[C+:5]([H:11])[N:6]1[H:12])([H:7])[H:8]"
N        1.96443242       0.01236354       0.37153350
C        0.63038916       0.14207930      -0.09695292
C       -0.24987253       1.27591201       0.00168000
C       -1.54624576       0.70284456       0.04401849
C       -1.44638605      -0.67338716       0.08418498
N       -0.15810272      -1.03143862      -0.03611658
H        2.63721991       0.07862488      -0.37817325
H        2.16559475       0.73005492       1.05284905
H        0.49951793       0.91187243      -1.18039404
H       -2.47770262       1.23970726      -0.06038069
H       -2.22234509      -1.42207205       0.17303252
H        0.20350059      -1.96656106       0.02471893
12
Frame=10 idx=001079 GeodesicLength=0.529462360983991 rxn_smarts="[N:1]([c:2]1[c:3]([H:9])[c:4]([H:10])[c:5]([H:11])[n:6]1[H:12])([H:7])[H:8]>>[N:1]([C@:2]1([H:9])[C-:3]=[C:4]([H:10])[C+:5]([H:11])[N:6]1[H:12])([H:7])[H:8]"
N        1.96409988       0.00495326       0.36619966
C        0.63176519       0.13803663      -0.10877969
C       -0.24899271       1.27010497      -0.01367253
C       -1.54510846       0.70282300       0.04411931
C       -1.44579085      -0.67416869       0.09601772
N       -0.15975471      -1.03359015      -0.03731321
H        2.63972580       0.10610341      -0.37710440
H        2.15475906       0.70115766       1.07250908
H        0.50611549       0.93585398      -1.19457666
H       -2.47608885       1.23887549      -0.06874078
H       -2.22194285      -1.42132098       0.19486801
H        0.20121302      -1.96882859       0.02647350
12
Frame=11 idx=001079 GeodesicLength=0.5822677875339533 rxn_smarts="[N:1]([c:2]1[c:3]([H:9])[c:4]([H:10])[c:5]([H:11])[n:6]1[H:12])([H:7])[H:8]>>[N:1]([C@:2]1([H:9])[C-:3]=[C:4]([H:10])[C+:5]([H:11])[N:6]1[H:12])([H:7])[H:8]"
N        1.96387809      -0.00211808       0.36052523
C        0.63311615       0.13376981      -0.12065958
C       -0.24814498       1.26408875      -0.02935221
C       -1.54384927       0.70277894       0.04449633
C       -1.44498538      -0.67483199       0.10895263
N       -0.16138014      -1.03582981      -0.03732293
H        2.64177559       0.13301148      -0.37534759
H        2.14415241       0.67263923       1.09012506
H        0.51274676       0.96026142      -1.20848593
H       -2.47447931       1.23788878      -0.07578841
H       -2.22180111      -1.42053948       0.21284713
H        0.19897121      -1.97111907       0.03001028
12
Frame=12 idx=001079 GeodesicLength=0.6350780807673065 rxn_smarts="[N:1]([c:2]1[c:3]([H:9])[c:4]([H:10])[c:5]([H:11])[n:6]1[H:12])([H:7])[H:8]>>[N:1]([C@:2]1([H:9])[C-:3]=[C:4]([H:10])[C+:5]([H:11])[N:6]1[H:12])([H:7])[H:8]"
N        1.96369652      -0.00904243       0.35455837
C        0.63442533       0.12929591      -0.13270343
C       -0.24738028       1.25784887      -0.04515855
C       -1.54253516       0.70269123       0.04482899
C       -1.44401179      -0.67540694       0.12225825
N       -0.16299543      -1.03815705      -0.03687705
H        2.64338472       0.15961880      -0.37277939
H        2.13360121       0.64395399       1.10625676
H        0.51960104       0.98564299      -1.22186316
H       -2.47290201       1.23667951      -0.08263210
H       -2.22165640      -1.41967324       0.22978796
H        0.19677224      -1.97345165       0.03432335
12
Frame=13 idx=001079 GeodesicLength=0.6879115903462958 rxn_smarts="[N:1]([c:2]1[c:3]([H:9])[c:4]([H:10])[c:5]([H:11])[n:6]1[H:12])([H:7])[H:8]>>[N:1]([C@:2]1([H:9])[C-:3]=[C:4]([H:10])[C+:5]([H:11])[N:6]1[H:12])([H:7])[H:8]"
N        1.96341086      -0.01596337       0.34840895
C        0.63568221       0.12463706      -0.14509891
C       -0.24671782       1.25137850      -0.06110494
C       -1.54119750       0.70252248       0.04466753
C       -1.44288340      -0.67592753       0.13526760
N       -0.16463309      -1.04057426      -0.03676251
H        2.64457519       0.18610991      -0.36905909
H        2.12274925       0.61464416       1.12138173
H        0.52695369       1.01248491      -1.23450631
H       -2.47136347       1.23517298      -0.09001838
H       -2.22115021      -1.41863574       0.24851042
H        0.19457428      -1.97584911       0.03831389
12
Frame=14 idx=001079 GeodesicLength=0.7407905912380878 rxn_smarts="[N:1]([c:2]1[c:3]([H:9])[c:4]([H:10])[c:5]([H:11])[n:6]1[H:12])([H:7])[H:8]>>[N:1]([C@:2]1([H:9])[C-:3]=[C:4]([H:10])[C+:5]([H:11])[N:6]1[H:12])([H:7])[H:8]"
N        1.96294961      -0.02295727       0.34210944
C        0.63688568       0.11980298      -0.15797509
C       -0.24616349       1.24468220      -0.07725942
C       -1.53986110       0.70225323       0.04376006
C       -1.44159062      -0.67639816       0.14777565
N       -0.16631994      -1.04308787      -0.03739774
H        2.64534350       0.21261973      -0.36398063
H        2.11138260       0.58440229       1.13574048
H        0.53495815       1.04105757      -1.24625820
H       -2.46988574       1.23329736      -0.09839531
H       -2.22004417      -1.41733796       0.27049577
H        0.19234553      -1.97833410       0.04138497
12
Frame=15 idx=001079 GeodesicLength=0.7937393273115256 rxn_smarts="[N:1]([c:2]1[c:3]([H:9])[c:4]([H:10])[c:5]([H:11])[n:6]1[H:12])([H:7])[H:8]>>[N:1]([C@:2]1([H:9])[C-:3]=[C:4]([H:10])[C+:5]([H:11])[N:6]1[H:12])([H:7])[H:8]"
N        1.96225301      -0.03008253       0.33566532
C        0.63803211       0.11480391      -0.17144257
C       -0.24572207       1.23777065      -0.09369055
C       -1.53854837       0.70186600       0.04193739
C       -1.44010141      -0.67680947       0.15979251
N       -0.16809179      -1.04570530      -0.03910876
H        2.64565768       0.23923742      -0.35736678
H        2.09932960       0.55297054       1.14945992
H        0.54372539       1.07158978      -1.25693201
H       -2.46849194       1.23094505      -0.10819683
H       -2.21808633      -1.41565542       0.29680808
H        0.19004412      -1.98093064       0.04307429
12
Frame=16 idx=001079 GeodesicLength=0.8467287644996002 rxn_smarts="[N:1]([c:2]1[c:3]([H:9])[c:4]([H:10])[c:5]([H:11])[n:6]1[H:12])([H:7])[H:8]>>[N:1]([C@:2]1([H:9])[C-:3]=[C:4]([H:10])[C+:5]([H:11])[N:6]1[H:12])([H:7])[H:8]"
N        1.96145164      -0.03717424       0.32895819
C        0.63911646       0.10958199      -0.18531742
C       -0.24538327       1.23061596      -0.11049493
C       -1.53721578       0.70138013       0.03971341
C       -1.43838106      -0.67711293       0.17204864
N       -0.16991454      -1.04843133      -0.04097283
H        2.64540426       0.26557051      -0.34969965
H        2.08703165       0.52102419       1.16195758
H        0.55299586       1.10365155      -1.26651723
H       -2.46716412       1.22816092      -0.11858690
H       -2.21565498      -1.41366006       0.32420667
H        0.18771386      -1.98360669       0.04470447
