13
Frame=0 idx=010200 GeodesicLength=0.0 rxn_smarts="[C:1]([C:2](=[O:3])[C@@:4]([O:5][H:12])([C:6](=[O:7])[H:13])[H:11])([H:8])([H:9])[H:10]>>[C:1](=[C:2]=[O:3])([H:8])[H:9].[C:4](\[O:5][H:12])(=[C:6](\[O:7][H:10])[H:13])[H:11]"
C       -1.57678147       0.04990491      -0.04430915
C       -0.82124867      -0.23918603      -1.17416428
O       -0.56942688      -0.54105739      -2.25236775
C        1.39124767       0.35738911      -0.16829707
O        1.07188869       1.57642287       0.33945609
C        1.07503290      -0.78125097       0.50411784
O        0.28331689      -0.72700566       1.53930994
H       -1.70931216       1.12177616       0.07772292
H       -2.50832036      -0.51181841      -0.04996988
H       -0.79927576      -0.35499650       0.93375265
H        2.01005797       0.38889196      -1.05456162
H        0.73349429       1.40457162       1.23088143
H        1.41932690      -1.74364165       0.11842893
13
Frame=1 idx=010200 GeodesicLength=0.07931583722348838 rxn_smarts="[C:1]([C:2](=[O:3])[C@@:4]([O:5][H:12])([C:6](=[O:7])[H:13])[H:11])([H:8])([H:9])[H:10]>>[C:1](=[C:2]=[O:3])([H:8])[H:9].[C:4](\[O:5][H:12])(=[C:6](\[O:7][H:10])[H:13])[H:11]"
C       -1.58506076       0.05050174      -0.05131681
C       -0.81826424      -0.23106213      -1.17652905
O       -0.56970070      -0.59111928      -2.23953650
C        1.37813348       0.36617110      -0.17863826
O        1.07669294       1.58209974       0.34892900
C        1.08933046      -0.77685879       0.50606652
O        0.29780181      -0.72867800       1.54069391
H       -1.70222907       1.12093205       0.09662600
H       -2.53377353      -0.48048503      -0.08256190
H       -0.81859182      -0.37776514       0.94061833
H        2.00747716       0.39982721      -1.05770301
H        0.75008756       1.40346214       1.24330533
H        1.42809673      -1.73702562       0.11004645
13
Frame=2 idx=010200 GeodesicLength=0.15854700991700865 rxn_smarts="[C:1]([C:2](=[O:3])[C@@:4]([O:5][H:12])([C:6](=[O:7])[H:13])[H:11])([H:8])([H:9])[H:10]>>[C:1](=[C:2]=[O:3])([H:8])[H:9].[C:4](\[O:5][H:12])(=[C:6](\[O:7][H:10])[H:13])[H:11]"
C       -1.59342150       0.05086833      -0.05860217
C       -0.81559421      -0.22352412      -1.17925473
O       -0.56970669      -0.64074359      -2.22398307
C        1.36493058       0.37499257      -0.18861838
O        1.08134765       1.58767051       0.35791074
C        1.10383360      -0.77218955       0.50779166
O        0.31204910      -0.73028473       1.54154130
H       -1.69518678       1.11892344       0.11588895
H       -2.55845042      -0.44727237      -0.11564413
H       -0.83825033      -0.40158995       0.94671534
H        2.00443706       0.41080985      -1.06062839
H        0.76704920       1.40245825       1.25524785
H        1.43696273      -1.73011864       0.10163502
13
Frame=3 idx=010200 GeodesicLength=0.23763864134724644 rxn_smarts="[C:1]([C:2](=[O:3])[C@@:4]([O:5][H:12])([C:6](=[O:7])[H:13])[H:11])([H:8])([H:9])[H:10]>>[C:1](=[C:2]=[O:3])([H:8])[H:9].[C:4](\[O:5][H:12])(=[C:6](\[O:7][H:10])[H:13])[H:11]"
C       -1.60186379       0.05079000      -0.06610623
C       -0.81315342      -0.21701923      -1.18217218
O       -0.56979374      -0.68824132      -2.20663041
C        1.35167320       0.38361709      -0.19824476
O        1.08573074       1.59306903       0.36604435
C        1.11858150      -0.76728070       0.50960784
O        0.32608779      -0.73162054       1.54215070
H       -1.68827752       1.11551040       0.13537280
H       -2.58213184      -0.41249442      -0.14904289
H       -0.85822443      -0.42641950       0.95218741
H        2.00099610       0.42142454      -1.06335143
H        0.78435872       1.40172266       1.26642091
H        1.44601669      -1.72305803       0.09376391
13
Frame=4 idx=010200 GeodesicLength=0.3165352931884144 rxn_smarts="[C:1]([C:2](=[O:3])[C@@:4]([O:5][H:12])([C:6](=[O:7])[H:13])[H:11])([H:8])([H:9])[H:10]>>[C:1](=[C:2]=[O:3])([H:8])[H:9].[C:4](\[O:5][H:12])(=[C:6](\[O:7][H:10])[H:13])[H:11]"
C       -1.61039591       0.05017479      -0.07376035
C       -0.81086956      -0.21166708      -1.18513706
O       -0.57014560      -0.73283064      -2.18823430
C        1.33839430       0.39189759      -0.20751236
O        1.08973139       1.59827367       0.37313781
C        1.13357913      -0.76215596       0.51169797
O        0.33993465      -0.73257944       1.54270873
H       -1.68158584       1.11057661       0.15505620
H       -2.60461192      -0.37636238      -0.18263029
H       -0.87849963      -0.45220082       0.95714328
H        1.99719353       0.43145012      -1.06587880
H        0.80200886       1.40135724       1.27667455
H        1.45526660      -1.71593370       0.08673461
13
Frame=5 idx=010200 GeodesicLength=0.3952587463363674 rxn_smarts="[C:1]([C:2](=[O:3])[C@@:4]([O:5][H:12])([C:6](=[O:7])[H:13])[H:11])([H:8])([H:9])[H:10]>>[C:1](=[C:2]=[O:3])([H:8])[H:9].[C:4](\[O:5][H:12])(=[C:6](\[O:7][H:10])[H:13])[H:11]"
C       -1.61903686       0.04910661      -0.08155078
C       -0.80873450      -0.20729440      -1.18811810
O       -0.57070108      -0.77491209      -2.16894769
C        1.32509537       0.39983525      -0.21640127
O        1.09328289       1.60329548       0.37928482
C        1.14879117      -0.75682343       0.51402532
O        0.35359661      -0.73322450       1.54320216
H       -1.67516733       1.10416208       0.17495407
H       -2.62572127      -0.33887103      -0.21635816
H       -0.89908203      -0.47881892       0.96160502
H        1.99297234       0.44096559      -1.06823592
H        0.82003010       1.40131638       1.28609146
H        1.46467461      -1.70873703       0.08044908
13
Frame=6 idx=010200 GeodesicLength=0.47376317794380146 rxn_smarts="[C:1]([C:2](=[O:3])[C@@:4]([O:5][H:12])([C:6](=[O:7])[H:13])[H:11])([H:8])([H:9])[H:10]>>[C:1](=[C:2]=[O:3])([H:8])[H:9].[C:4](\[O:5][H:12])(=[C:6](\[O:7][H:10])[H:13])[H:11]"
C       -1.62779827       0.04751358      -0.08940552
C       -0.80666475      -0.20392236      -1.19098055
O       -0.57166178      -0.81385407      -2.14955415
C        1.31184406       0.40728876      -0.22491105
O        1.09627193       1.60813074       0.38430219
C        1.16423268      -0.75130548       0.51675972
O        0.36710188      -0.73344486       1.54382081
H       -1.66911788       1.09617838       0.19509236
H       -2.64529537      -0.30022600      -0.25007071
H       -0.91997476      -0.50628072       0.96566923
H        1.98844855       0.44976006      -1.07041408
H        0.83837018       1.40172825       1.29451043
H        1.47424355      -1.70156629       0.07518132
13
Frame=7 idx=010200 GeodesicLength=0.5520840260645217 rxn_smarts="[C:1]([C:2](=[O:3])[C@@:4]([O:5][H:12])([C:6](=[O:7])[H:13])[H:11])([H:8])([H:9])[H:10]>>[C:1](=[C:2]=[O:3])([H:8])[H:9].[C:4](\[O:5][H:12])(=[C:6](\[O:7][H:10])[H:13])[H:11]"
C       -1.63669175       0.04552397      -0.09734435
C       -0.80467183      -0.20134595      -1.19374042
O       -0.57292105      -0.85035249      -2.12995943
C        1.29862354       0.41430825      -0.23302919
O        1.09864514       1.61279783       0.38836858
C        1.17986401      -0.74560372       0.51979868
O        0.38046452      -0.73335069       1.54449218
H       -1.66345973       1.08670649       0.21546435
H       -2.66320043      -0.26033178      -0.28372593
H       -0.94120291      -0.53448242       0.96931891
H        1.98355397       0.45800312      -1.07243694
H        0.85705106       1.40250686       1.30206458
H        1.48394545      -1.69437947       0.07072898
13
Frame=8 idx=010200 GeodesicLength=0.6302172609749596 rxn_smarts="[C:1]([C:2](=[O:3])[C@@:4]([O:5][H:12])([C:6](=[O:7])[H:13])[H:11])([H:8])([H:9])[H:10]>>[C:1](=[C:2]=[O:3])([H:8])[H:9].[C:4](\[O:5][H:12])(=[C:6](\[O:7][H:10])[H:13])[H:11]"
C       -1.64572337       0.04316346      -0.10534980
C       -0.80271784      -0.19949793      -1.19634825
O       -0.57454967      -0.88440339      -2.11049325
C        1.28546440       0.42085069      -0.24075756
O        1.10034336       1.61730834       0.39148415
C        1.19567743      -0.73972799       0.52317710
O        0.39370649      -0.73293302       1.54527850
H       -1.65823433       1.07574667       0.23606422
H       -2.67930801      -0.21924372      -0.31718325
H       -0.96279759      -0.56341319       0.97257684
H        1.97834071       0.46566652      -1.07430772
H        0.87601581       1.40369033       1.30871836
H        1.49378262      -1.68720676       0.06714066
13
Frame=9 idx=010200 GeodesicLength=0.7081839379991075 rxn_smarts="[C:1]([C:2](=[O:3])[C@@:4]([O:5][H:12])([C:6](=[O:7])[H:13])[H:11])([H:8])([H:9])[H:10]>>[C:1](=[C:2]=[O:3])([H:8])[H:9].[C:4](\[O:5][H:12])(=[C:6](\[O:7][H:10])[H:13])[H:11]"
C       -1.65489827       0.04050736      -0.11343440
C       -0.80079721      -0.19827593      -1.19880104
O       -0.57652892      -0.91630947      -2.09121551
C        1.27236670       0.42692261      -0.24809861
O        1.10131327       1.62167175       0.39373466
C        1.21165423      -0.73368182       0.52686011
O        0.40685535      -0.73223423       1.54617631
H       -1.65346399       1.06333500       0.25686920
H       -2.69349930      -0.17693608      -0.35034043
H       -0.98479944      -0.59303395       0.97543363
H        1.97280746       0.47281602      -1.07603642
H        0.89523989       1.40525844       1.31450817
H        1.50375024      -1.68003970       0.06434433
13
Frame=10 idx=010200 GeodesicLength=0.7859971775666609 rxn_smarts="[C:1]([C:2](=[O:3])[C@@:4]([O:5][H:12])([C:6](=[O:7])[H:13])[H:11])([H:8])([H:9])[H:10]>>[C:1](=[C:2]=[O:3])([H:8])[H:9].[C:4](\[O:5][H:12])(=[C:6](\[O:7][H:10])[H:13])[H:11]"
C       -1.66421687       0.03762291      -0.12161171
C       -0.79890139      -0.19760525      -1.20109434
O       -0.57885811      -0.94630048      -2.07219330
C        1.25933242       0.43252629      -0.25505870
O        1.10151348       1.62589514       0.39519303
C        1.22777851      -0.72746725       0.53082145
O        0.41994021      -0.73128413       1.54719073
H       -1.64916491       1.04950116       0.27784546
H       -2.70565929      -0.13339720      -0.38307537
H       -1.00725938      -0.62332301       0.97787360
H        1.96696582       0.47950086      -1.07762942
H        0.91468022       1.40720366       1.31944912
H        1.51384930      -1.67287270       0.06228945
13
Frame=11 idx=010200 GeodesicLength=0.8636772625887457 rxn_smarts="[C:1]([C:2](=[O:3])[C@@:4]([O:5][H:12])([C:6](=[O:7])[H:13])[H:11])([H:8])([H:9])[H:10]>>[C:1](=[C:2]=[O:3])([H:8])[H:9].[C:4](\[O:5][H:12])(=[C:6](\[O:7][H:10])[H:13])[H:11]"
C       -1.67367860       0.03457843      -0.12990078
C       -0.79702619      -0.19742688      -1.20323278
O       -0.58153125      -0.97460790      -2.05345462
C        1.24635897       0.43766969      -0.26164756
O        1.10090382       1.62998329       0.39593479
C        1.24403553      -0.72108358       0.53503069
O        0.43299250      -0.73011082       1.54832587
H       -1.64534841       1.03427269       0.29895288
H       -2.71567803      -0.08860852      -0.41526719
H       -1.03024078      -0.65426498       0.97987396
H        1.96082588       0.48577631      -1.07909457
H        0.93430305       1.40951763       1.32355918
H        1.52408349      -1.66569536       0.06092013
13
Frame=12 idx=010200 GeodesicLength=0.9412261980083568 rxn_smarts="[C:1]([C:2](=[O:3])[C@@:4]([O:5][H:12])([C:6](=[O:7])[H:13])[H:11])([H:8])([H:9])[H:10]>>[C:1](=[C:2]=[O:3])([H:8])[H:9].[C:4](\[O:5][H:12])(=[C:6](\[O:7][H:10])[H:13])[H:11]"
C       -1.68327114       0.03143503      -0.13832051
C       -0.79516015      -0.19769712      -1.20521265
O       -0.58457162      -1.00136382      -2.03507796
C        1.23344454       0.44234693      -0.26787546
O        1.09945779       1.63393559       0.39601170
C        1.26041577      -0.71452900       0.53947730
O        0.44604937      -0.72872184       1.54959845
H       -1.64201322       1.01767098       0.32014151
H       -2.72344273      -0.04257323      -0.44675116
H       -1.05380550      -0.68587284       0.98139416
H        1.95440475       0.49166275      -1.08042865
H        0.95402648       1.41221161       1.32682044
H        1.53446567      -1.65850505       0.06022283
13
Frame=13 idx=010200 GeodesicLength=1.0187064824979597 rxn_smarts="[C:1]([C:2](=[O:3])[C@@:4]([O:5][H:12])([C:6](=[O:7])[H:13])[H:11])([H:8])([H:9])[H:10]>>[C:1](=[C:2]=[O:3])([H:8])[H:9].[C:4](\[O:5][H:12])(=[C:6](\[O:7][H:10])[H:13])[H:11]"
C       -1.69300772       0.02825437      -0.14689170
C       -0.79330731      -0.19838363      -1.20705053
O       -0.58799401      -1.02673870      -2.01712197
C        1.22060544       0.44655959      -0.27375590
O        1.09716906       1.63776220       0.39548943
C        1.27692551      -0.70779719       0.54414435
O        0.45915137      -0.72711441       1.55103274
H       -1.63918012       0.99971756       0.34137813
H       -2.72888402       0.00470638      -0.47737842
H       -1.07804680      -0.71816214       0.98238977
H        1.94775108       0.49718470      -1.08163852
H        0.97380017       1.41531279       1.32924225
H        1.54501735      -1.65130149       0.06016038
13
Frame=14 idx=010200 GeodesicLength=1.0960320296015127 rxn_smarts="[C:1]([C:2](=[O:3])[C@@:4]([O:5][H:12])([C:6](=[O:7])[H:13])[H:11])([H:8])([H:9])[H:10]>>[C:1](=[C:2]=[O:3])([H:8])[H:9].[C:4](\[O:5][H:12])(=[C:6](\[O:7][H:10])[H:13])[H:11]"
C       -1.70283213       0.02510258      -0.15562856
C       -0.79144592      -0.19943361      -1.20873007
O       -0.59176312      -1.05087340      -1.99950633
C        1.20779846       0.45031692      -0.27930773
O        1.09395364       1.64143408       0.39439112
C        1.29351554      -0.70088069       0.54900129
O        0.47232797      -0.72531011       1.55262444
H       -1.63681923       0.98040314       0.36260610
H       -2.73180125       0.05324047      -0.50703268
H       -1.10302663      -0.75113814       0.98281683
H        1.94081382       0.50240424      -1.08272303
H        0.99359390       1.41878660       1.33078474
H        1.55568495      -1.64405207       0.06070386
13
Frame=15 idx=010200 GeodesicLength=1.173413393213607 rxn_smarts="[C:1]([C:2](=[O:3])[C@@:4]([O:5][H:12])([C:6](=[O:7])[H:13])[H:11])([H:8])([H:9])[H:10]>>[C:1](=[C:2]=[O:3])([H:8])[H:9].[C:4](\[O:5][H:12])(=[C:6](\[O:7][H:10])[H:13])[H:11]"
C       -1.71281614       0.02203724      -0.16456702
C       -0.78961678      -0.20085894      -1.21030355
O       -0.59592501      -1.07397753      -1.98232221
C        1.19506793       0.45361998      -0.28453959
O        1.08981484       1.64499157       0.39281220
C        1.31025123      -0.69377239       0.55404020
O        0.48565721      -0.72327445       1.55442253
H       -1.63500592       0.95974837       0.38382713
H       -2.73221500       0.10306522      -0.53559166
H       -1.12888471      -0.78483829       0.98260289
H        1.93368960       0.50732810      -1.08369152
H        1.01342411       1.42271703       1.33150187
H        1.56655864      -1.63678590       0.06180873
13
Frame=16 idx=010200 GeodesicLength=1.2505598295941218 rxn_smarts="[C:1]([C:2](=[O:3])[C@@:4]([O:5][H:12])([C:6](=[O:7])[H:13])[H:11])([H:8])([H:9])[H:10]>>[C:1](=[C:2]=[O:3])([H:8])[H:9].[C:4](\[O:5][H:12])(=[C:6](\[O:7][H:10])[H:13])[H:11]"
C       -1.72280435       0.01908682      -0.17369984
C       -0.78772943      -0.20260303      -1.21170391
O       -0.60049594      -1.09594952      -1.96557916
C        1.18235243       0.45645563      -0.28948356
O        1.08476609       1.64836725       0.39067326
C        1.32701612      -0.68643475       0.55927222
O        0.49910176      -0.72099354       1.55642876
H       -1.63355017       0.93767665       0.40492743
H       -2.72980906       0.15417282      -0.56272051
H       -1.15567003      -0.81938070       0.98163312
H        1.92629976       0.51195778      -1.08453503
H        1.03298310       1.42707019       1.33120854
H        1.57753972      -1.62942560       0.06357867
