13
Frame=0 idx=004875 GeodesicLength=0.0 rxn_smarts="[C:1]([C@@:2]1([H:10])[C:3]([H:11])([H:12])[C:4](=[O:5])[N:6]1[H:13])([H:7])([H:8])[H:9]>>[C:1]([C@@:2]1([H:10])[C:3]([H:11])([H:12])[C:4]([O:5][H:13])=[N:6]1)([H:7])([H:8])[H:9]"
C       -1.61587598      -0.45120353       0.34192997
C       -0.43208363       0.03102264      -0.45768817
C        0.50840568       1.09143504       0.19561856
C        1.53969933       0.00666857      -0.00775626
O        2.75951424      -0.32866444      -0.03234737
N        0.74886294      -0.90875312      -0.46749211
H       -2.06457196      -1.32720881      -0.12880640
H       -1.31224639      -0.72717115       1.35358253
H       -2.37750482       0.32922051       0.40776765
H       -0.72275003       0.30473011      -1.47383377
H        0.68250663       2.00676436      -0.36688413
H        0.28839920       1.32407808       1.23657147
H        1.99764478      -1.35091829      -0.60066200
13
Frame=1 idx=004875 GeodesicLength=0.03364174304465517 rxn_smarts="[C:1]([C@@:2]1([H:10])[C:3]([H:11])([H:12])[C:4](=[O:5])[N:6]1[H:13])([H:7])([H:8])[H:9]>>[C:1]([C@@:2]1([H:10])[C:3]([H:11])([H:12])[C:4]([O:5][H:13])=[N:6]1)([H:7])([H:8])[H:9]"
C       -1.61362237      -0.45221354       0.34223489
C       -0.43260963       0.03350699      -0.45974330
C        0.50665464       1.09416519       0.19393658
C        1.53976697       0.01318959      -0.01378333
O        2.75671642      -0.33365369      -0.02158280
N        0.74770695      -0.90395409      -0.47478231
H       -2.06232679      -1.32822789      -0.12856791
H       -1.30718872      -0.72905508       1.35283558
H       -2.37655946       0.32664224       0.41132776
H       -0.72724184       0.30895463      -1.47437490
H        0.68039691       2.01026072      -0.36750118
H        0.28914265       1.32426723       1.23600423
H        1.99916427      -1.36388230      -0.59600332
13
Frame=2 idx=004875 GeodesicLength=0.06728525022267257 rxn_smarts="[C:1]([C@@:2]1([H:10])[C:3]([H:11])([H:12])[C:4](=[O:5])[N:6]1[H:13])([H:7])([H:8])[H:9]>>[C:1]([C@@:2]1([H:10])[C:3]([H:11])([H:12])[C:4]([O:5][H:13])=[N:6]1)([H:7])([H:8])[H:9]"
C       -1.61127483      -0.45325762       0.34251572
C       -0.43311195       0.03604713      -0.46183866
C        0.50492635       1.09693527       0.19223623
C        1.53990697       0.01983994      -0.01999792
O        2.75363191      -0.33862806      -0.01084467
N        0.74659678      -0.89904613      -0.48222278
H       -2.05997906      -1.32926902      -0.12838422
H       -1.30197839      -0.73101993       1.35202406
H       -2.37553325       0.32399037       0.41494785
H       -0.73176835       0.31326987      -1.47490898
H        0.67820913       2.01385306      -0.36807430
H        0.28996066       1.32441677       1.23543373
H        2.00041402      -1.37713165      -0.59088604
13
Frame=3 idx=004875 GeodesicLength=0.10092935485243065 rxn_smarts="[C:1]([C@@:2]1([H:10])[C:3]([H:11])([H:12])[C:4](=[O:5])[N:6]1[H:13])([H:7])([H:8])[H:9]>>[C:1]([C@@:2]1([H:10])[C:3]([H:11])([H:12])[C:4]([O:5][H:13])=[N:6]1)([H:7])([H:8])[H:9]"
C       -1.60885620      -0.45432233       0.34276784
C       -0.43357410       0.03861362      -0.46394727
C        0.50322576       1.09972387       0.19054815
C        1.54012153       0.02658088      -0.02629818
O        2.75028814      -0.34352200      -0.00026728
N        0.74553902      -0.89407431      -0.48970790
H       -2.05754516      -1.33032820      -0.12824847
H       -1.29668524      -0.73302069       1.35116654
H       -2.37444171       0.32129123       0.41856331
H       -0.73626958       0.31761762      -1.47542975
H        0.67596408       2.01750679      -0.36858962
H        0.29083132       1.32453110       1.23487918
H        2.00140213      -1.39059758      -0.58543656
13
Frame=4 idx=004875 GeodesicLength=0.1345773529559526 rxn_smarts="[C:1]([C@@:2]1([H:10])[C:3]([H:11])([H:12])[C:4](=[O:5])[N:6]1[H:13])([H:7])([H:8])[H:9]>>[C:1]([C@@:2]1([H:10])[C:3]([H:11])([H:12])[C:4]([O:5][H:13])=[N:6]1)([H:7])([H:8])[H:9]"
C       -1.60639444      -0.45538941       0.34298499
C       -0.43397804       0.04116898      -0.46603331
C        0.50155467       1.10250598       0.18891086
C        1.54040211       0.03336643      -0.03255133
O        2.74672798      -0.34826560       0.00998647
N        0.74453338      -0.88909466      -0.49710043
H       -2.05504555      -1.33139926      -0.12815167
H       -1.29139677      -0.73499666       1.35028349
H       -2.37330029       0.31857841       0.42209277
H       -0.74067188       0.32192043      -1.47592551
H        0.67368740       2.02117648      -0.36903010
H        0.29172423       1.32462084       1.23436196
H        2.00215720      -1.40419197      -0.57982821
13
Frame=5 idx=004875 GeodesicLength=0.16819153407079726 rxn_smarts="[C:1]([C@@:2]1([H:10])[C:3]([H:11])([H:12])[C:4](=[O:5])[N:6]1[H:13])([H:7])([H:8])[H:9]>>[C:1]([C@@:2]1([H:10])[C:3]([H:11])([H:12])[C:4]([O:5][H:13])=[N:6]1)([H:7])([H:8])[H:9]"
C       -1.60387952      -0.45646849       0.34316974
C       -0.43433047       0.04372984      -0.46811302
C        0.49991304       1.10529212       0.18730933
C        1.54074850       0.04020063      -0.03877669
O        2.74294797      -0.35287420       0.01995281
N        0.74358497      -0.88408537      -0.50446512
H       -2.05247172      -1.33248576      -0.12810170
H       -1.28607245      -0.73698407       1.34936554
H       -2.37210499       0.31583835       0.42557613
H       -0.74500589       0.32621512      -1.47640468
H        0.67138316       2.02487571      -0.36940892
H        0.29263999       1.32469216       1.23387134
H        2.00264741      -1.41794603      -0.57397477
13
Frame=6 idx=004875 GeodesicLength=0.20181561419398555 rxn_smarts="[C:1]([C@@:2]1([H:10])[C:3]([H:11])([H:12])[C:4](=[O:5])[N:6]1[H:13])([H:7])([H:8])[H:9]>>[C:1]([C@@:2]1([H:10])[C:3]([H:11])([H:12])[C:4]([O:5][H:13])=[N:6]1)([H:7])([H:8])[H:9]"
C       -1.60135750      -0.45753259       0.34331202
C       -0.43460976       0.04625095      -0.47013996
C        0.49829882       1.10805024       0.18580016
C        1.54115439       0.04703576      -0.04482386
O        2.73903872      -0.35724182       0.02936365
N        0.74269514      -0.87911756      -0.51161591
H       -2.04985458      -1.33357986      -0.12808540
H       -1.28084616      -0.73889344       1.34844495
H       -2.37089318       0.31311568       0.42889355
H       -0.74917233       0.33040952      -1.47685556
H        0.66906916       2.02855466      -0.36968894
H        0.29354390       1.32474049       1.23344964
H        2.00293337      -1.43179204      -0.56805435
13
Frame=7 idx=004875 GeodesicLength=0.2354322752296502 rxn_smarts="[C:1]([C@@:2]1([H:10])[C:3]([H:11])([H:12])[C:4](=[O:5])[N:6]1[H:13])([H:7])([H:8])[H:9]>>[C:1]([C@@:2]1([H:10])[C:3]([H:11])([H:12])[C:4]([O:5][H:13])=[N:6]1)([H:7])([H:8])[H:9]"
C       -1.59880859      -0.45859703       0.34341387
C       -0.43482897       0.04875728      -0.47213664
C        0.49670894       1.11079857       0.18435983
C        1.54160933       0.05388379      -0.05072512
O        2.73499569      -0.36140416       0.03828365
N        0.74186101      -0.87415475      -0.51864932
H       -2.04718282      -1.33468339      -0.12811988
H       -1.27565239      -0.74077913       1.34750114
H       -2.36964934       0.31038671       0.43211034
H       -0.75322058       0.33455711      -1.47728402
H        0.66674905       2.03223351      -0.36988977
H        0.29443739       1.32478126       1.23307637
H        2.00298128      -1.44577976      -0.56194047
13
Frame=8 idx=004875 GeodesicLength=0.26904720530047976 rxn_smarts="[C:1]([C@@:2]1([H:10])[C:3]([H:11])([H:12])[C:4](=[O:5])[N:6]1[H:13])([H:7])([H:8])[H:9]>>[C:1]([C@@:2]1([H:10])[C:3]([H:11])([H:12])[C:4]([O:5][H:13])=[N:6]1)([H:7])([H:8])[H:9]"
C       -1.59622111      -0.45967151       0.34347377
C       -0.43499478       0.05126646      -0.47411636
C        0.49514146       1.11354806       0.18297817
C        1.54210953       0.06076085      -0.05651063
O        2.73082556      -0.36538203       0.04672489
N        0.74108159      -0.86916942      -0.52562257
H       -2.04444013      -1.33580670      -0.12820923
H       -1.27045849      -0.74266013       1.34652330
H       -2.36837032       0.30763017       0.43524927
H       -0.75717767       0.33869559      -1.47769144
H        0.66441936       2.03592899      -0.37001157
H        0.29532711       1.32481265       1.23274571
H        2.00275790      -1.45995299      -0.55553330
13
Frame=9 idx=004875 GeodesicLength=0.3026462857160696 rxn_smarts="[C:1]([C@@:2]1([H:10])[C:3]([H:11])([H:12])[C:4](=[O:5])[N:6]1[H:13])([H:7])([H:8])[H:9]>>[C:1]([C@@:2]1([H:10])[C:3]([H:11])([H:12])[C:4]([O:5][H:13])=[N:6]1)([H:7])([H:8])[H:9]"
C       -1.59357890      -0.46076761       0.34348620
C       -0.43511299       0.05379983      -0.47609443
C        0.49359520       1.11631026       0.18164712
C        1.54265276       0.06768435      -0.06221533
O        2.72654333      -0.36917374       0.05464782
N        0.74035835      -0.86412968      -0.53260321
H       -2.04160965      -1.33695241      -0.12837501
H       -1.26522134      -0.74457523       1.34549038
H       -2.36704636       0.30482396       0.43834246
H       -0.76107363       0.34286975      -1.47807942
H        0.66207304       2.03966124      -0.37004913
H        0.29622233       1.32482718       1.23245558
H        2.00219785      -1.47437790      -0.54865302
13
Frame=10 idx=004875 GeodesicLength=0.3362589274952164 rxn_smarts="[C:1]([C@@:2]1([H:10])[C:3]([H:11])([H:12])[C:4](=[O:5])[N:6]1[H:13])([H:7])([H:8])[H:9]>>[C:1]([C@@:2]1([H:10])[C:3]([H:11])([H:12])[C:4]([O:5][H:13])=[N:6]1)([H:7])([H:8])[H:9]"
C       -1.59091346      -0.46186749       0.34345196
C       -0.43517287       0.05632383      -0.47804194
C        0.49206505       1.11906841       0.18039246
C        1.54322944       0.07462283      -0.06774049
O        2.72220189      -0.37274863       0.06196610
N        0.73969003      -0.85908666      -0.53947005
H       -2.03872397      -1.33810880      -0.12860514
H       -1.26001990      -0.74647835       1.34442498
H       -2.36569536       0.30200474       0.44133511
H       -0.76485027       0.34700889      -1.47844375
H        0.65972578       2.04339572      -0.36999965
H        0.29709282       1.32483886       1.23221961
H        2.00137081      -1.48897336      -0.54148920
13
Frame=11 idx=004875 GeodesicLength=0.36986469511280273 rxn_smarts="[C:1]([C@@:2]1([H:10])[C:3]([H:11])([H:12])[C:4](=[O:5])[N:6]1[H:13])([H:7])([H:8])[H:9]>>[C:1]([C@@:2]1([H:10])[C:3]([H:11])([H:12])[C:4]([O:5][H:13])=[N:6]1)([H:7])([H:8])[H:9]"
C       -1.58820208      -0.46298688       0.34336967
C       -0.43518264       0.05886276      -0.47998144
C        0.49054913       1.12183918       0.17919485
C        1.54384136       0.08160257      -0.07314177
O        2.71780072      -0.37613911       0.06872263
N        0.73908195      -0.85399990      -0.54631279
H       -2.03576467      -1.33928042      -0.12891726
H       -1.25479243      -0.74841784       1.34330603
H       -2.36430183       0.29914472       0.44428132
H       -0.76854931       0.35116392      -1.47879064
H        0.65736776       2.04715742      -0.36987067
H        0.29794899       1.32484624       1.23202617
H        2.00020307      -1.50379265      -0.53388611
13
Frame=12 idx=004875 GeodesicLength=0.4034614626285704 rxn_smarts="[C:1]([C@@:2]1([H:10])[C:3]([H:11])([H:12])[C:4](=[O:5])[N:6]1[H:13])([H:7])([H:8])[H:9]>>[C:1]([C@@:2]1([H:10])[C:3]([H:11])([H:12])[C:4]([O:5][H:13])=[N:6]1)([H:7])([H:8])[H:9]"
C       -1.58547315      -0.46410741       0.34324857
C       -0.43513396       0.06138460      -0.48188355
C        0.48904289       1.12460988       0.17807079
C        1.54448025       0.08859373      -0.07832903
O        2.71336123      -0.37937147       0.07494688
N        0.73853155      -0.84892064      -0.55301151
H       -2.03274584      -1.34047172      -0.12927359
H       -1.24961297      -0.75032406       1.34217204
H       -2.36289257       0.29627339       0.44711378
H       -0.77212249       0.35526115      -1.47911610
H        0.65501858       2.05091262      -0.36967385
H        0.29876194       1.32487485       1.23187954
H        1.99878455      -1.51871491      -0.52614399
13
Frame=13 idx=004875 GeodesicLength=0.43706219223694764 rxn_smarts="[C:1]([C@@:2]1([H:10])[C:3]([H:11])([H:12])[C:4](=[O:5])[N:6]1[H:13])([H:7])([H:8])[H:9]>>[C:1]([C@@:2]1([H:10])[C:3]([H:11])([H:12])[C:4]([O:5][H:13])=[N:6]1)([H:7])([H:8])[H:9]"
C       -1.58270874      -0.46524138       0.34308258
C       -0.43503340       0.06391095      -0.48376838
C        0.48754496       1.12739170       0.17700947
C        1.54514928       0.09562659      -0.08337150
O        2.70889351      -0.38244361       0.08061631
N        0.73804122      -0.84381276      -0.55964545
H       -2.02965696      -1.34168124      -0.12969839
H       -1.24443190      -0.75224332       1.34099721
H       -2.36145205       0.29337012       0.44987398
H       -0.77560536       0.35934914      -1.47942334
H        0.65265696       2.05468830      -0.36939886
H        0.29955329       1.32490417       1.23177966
H        1.99704917      -1.53381867      -0.51805329
13
Frame=14 idx=004875 GeodesicLength=0.4706697560872174 rxn_smarts="[C:1]([C@@:2]1([H:10])[C:3]([H:11])([H:12])[C:4](=[O:5])[N:6]1[H:13])([H:7])([H:8])[H:9]>>[C:1]([C@@:2]1([H:10])[C:3]([H:11])([H:12])[C:4]([O:5][H:13])=[N:6]1)([H:7])([H:8])[H:9]"
C       -1.57988463      -0.46640532       0.34286471
C       -0.43488740       0.06646710      -0.48565913
C        0.48605644       1.13019761       0.17599618
C        1.54585146       0.10273106      -0.08834258
O        2.70439761      -0.38536434       0.08572261
N        0.73761247      -0.83863565      -0.56630606
H       -2.02647823      -1.34291304      -0.13021748
H       -1.23918771      -0.75422631       1.33975230
H       -2.35996058       0.29040545       0.45261141
H       -0.77903762       0.36348515      -1.47971499
H        0.65026594       2.05851443      -0.36903685
H        0.30034506       1.32491764       1.23172107
H        1.99490718      -1.54917378      -0.50939122
13
Frame=15 idx=004875 GeodesicLength=0.5042786431814731 rxn_smarts="[C:1]([C@@:2]1([H:10])[C:3]([H:11])([H:12])[C:4](=[O:5])[N:6]1[H:13])([H:7])([H:8])[H:9]>>[C:1]([C@@:2]1([H:10])[C:3]([H:11])([H:12])[C:4]([O:5][H:13])=[N:6]1)([H:7])([H:8])[H:9]"
C       -1.57702546      -0.46758583       0.34259721
C       -0.43468865       0.06902822      -0.48753430
C        0.48457281       1.13301594       0.17504803
C        1.54658371       0.10988881      -0.09318105
O        2.69991271      -0.38812771       0.09022009
N        0.73724665      -0.83342878      -0.57290067
H       -2.02322992      -1.34416268      -0.13081602
H       -1.23394142      -0.75623041       1.33846053
H       -2.35843754       0.28740538       0.45527963
H       -0.78237948       0.36761647      -1.47998947
H        0.64785593       2.06236744      -0.36858641
H        0.30111648       1.32492305       1.23171438
H        1.99241418      -1.56470989      -0.50031194
13
Frame=16 idx=004875 GeodesicLength=0.5378977619426956 rxn_smarts="[C:1]([C@@:2]1([H:10])[C:3]([H:11])([H:12])[C:4](=[O:5])[N:6]1[H:13])([H:7])([H:8])[H:9]>>[C:1]([C@@:2]1([H:10])[C:3]([H:11])([H:12])[C:4]([O:5][H:13])=[N:6]1)([H:7])([H:8])[H:9]"
C       -1.57411714      -0.46879008       0.34227853
C       -0.43444022       0.07160603      -0.48940493
C        0.48309477       1.13585325       0.17415651
C        1.54734726       0.11711760      -0.09792768
O        2.69543268      -0.39075438       0.09413721
N        0.73694351      -0.82817246      -0.57947236
H       -2.01989837      -1.34543466      -0.13149997
H       -1.22866125      -0.75827443       1.33711036
H       -2.35687298       0.28435397       0.45789812
H       -0.78565079       0.37176543      -1.48024833
H        0.64541402       2.06626093      -0.36804586
H        0.30188313       1.32491273       1.23175562
H        1.98952538      -1.58044392      -0.49073720
