14
Frame=0 idx=010530 GeodesicLength=0.0 rxn_smarts="[O:1]([C:2]1([C:3]([C:4]#[N:5])([H:9])[H:10])[C:6]([H:11])([H:12])[C:7]1([H:13])[H:14])[H:8]>>[O:1]([C:2]1([C:3]([N+:5]#[C-:4])([H:9])[H:10])[C:6]([H:11])([H:12])[C:7]1([H:13])[H:14])[H:8]"
O       -0.23634737       1.71190583      -0.36719001
C       -0.19778266       0.33945205      -0.16421084
C        1.07347494      -0.32404616      -0.56576667
C        2.29918268       0.54925299       0.44202804
N        2.39423553      -0.59766576       0.71785391
C       -1.47770524      -0.38081390      -0.44985991
C       -0.98968513      -0.24390812       0.96608502
H        0.50671979       2.09449233       0.11442039
H        0.99451448      -1.40689587      -0.55746385
H        1.46752689       0.01194278      -1.51977306
H       -2.30019292       0.24884163      -0.75988596
H       -1.43746563      -1.35209252      -0.92508341
H       -0.59713511      -1.11860490       1.46871713
H       -1.49934019       0.46813958       1.60012927
14
Frame=1 idx=010530 GeodesicLength=0.038812645700672464 rxn_smarts="[O:1]([C:2]1([C:3]([C:4]#[N:5])([H:9])[H:10])[C:6]([H:11])([H:12])[C:7]1([H:13])[H:14])[H:8]>>[O:1]([C:2]1([C:3]([N+:5]#[C-:4])([H:9])[H:10])[C:6]([H:11])([H:12])[C:7]1([H:13])[H:14])[H:8]"
O       -0.23367661       1.71089979      -0.36600798
C       -0.19660141       0.33803927      -0.16318332
C        1.07657995      -0.32625333      -0.56316039
C        2.32603031       0.55178555       0.42057971
N        2.38864654      -0.58494815       0.73434394
C       -1.47706237      -0.37915105      -0.45212889
C       -0.99152619      -0.24460411       0.96520589
H        0.49718301       2.09563093       0.13186863
H        0.99383443      -1.40932436      -0.55709062
H        1.45644478       0.00024603      -1.52678430
H       -2.29879086       0.25140948      -0.76226535
H       -1.43762846      -1.35010162      -0.92813740
H       -0.60172570      -1.12073152       1.46752155
H       -1.50170742       0.46710310       1.59923852
14
Frame=2 idx=010530 GeodesicLength=0.07770457146880491 rxn_smarts="[O:1]([C:2]1([C:3]([C:4]#[N:5])([H:9])[H:10])[C:6]([H:11])([H:12])[C:7]1([H:13])[H:14])[H:8]>>[O:1]([C:2]1([C:3]([N+:5]#[C-:4])([H:9])[H:10])[C:6]([H:11])([H:12])[C:7]1([H:13])[H:14])[H:8]"
O       -0.23067936       1.70995964      -0.36425346
C       -0.19544678       0.33654994      -0.16205035
C        1.07964372      -0.32860932      -0.56049379
C        2.35307586       0.55378006       0.39830119
N        2.38345449      -0.57035163       0.75061057
C       -1.47648845      -0.37736959      -0.45458287
C       -0.99356791      -0.24547390       0.96428700
H        0.48792257       2.09638818       0.14955682
H        0.99328720      -1.41195174      -0.55589399
H        1.44493826      -0.01197019      -1.53366313
H       -2.29729740       0.25432877      -0.76487702
H       -1.43790412      -1.34796307      -0.93154911
H       -0.60667739      -1.12318952       1.46621781
H       -1.50426070       0.46587236       1.59839032
14
Frame=3 idx=010530 GeodesicLength=0.11632291456857026 rxn_smarts="[O:1]([C:2]1([C:3]([C:4]#[N:5])([H:9])[H:10])[C:6]([H:11])([H:12])[C:7]1([H:13])[H:14])[H:8]>>[O:1]([C:2]1([C:3]([N+:5]#[C-:4])([H:9])[H:10])[C:6]([H:11])([H:12])[C:7]1([H:13])[H:14])[H:8]"
O       -0.22739164       1.70886227      -0.36195909
C       -0.19432836       0.33495842      -0.16084449
C        1.08270269      -0.33101244      -0.55776912
C        2.38009464       0.55498560       0.37540923
N        2.37850573      -0.55397922       0.76640040
C       -1.47594502      -0.37546270      -0.45707491
C       -0.99581157      -0.24644663       0.96324156
H        0.47892949       2.09651567       0.16728370
H        0.99287233      -1.41452239      -0.55405606
H        1.43325584      -0.02449736      -1.54016417
H       -2.29568723       0.25747090      -0.76750019
H       -1.43820225      -1.34556085      -0.93505591
H       -0.61195194      -1.12573829       1.46466852
H       -1.50704271       0.46442702       1.59742054
14
Frame=4 idx=010530 GeodesicLength=0.15493225767416752 rxn_smarts="[O:1]([C:2]1([C:3]([C:4]#[N:5])([H:9])[H:10])[C:6]([H:11])([H:12])[C:7]1([H:13])[H:14])[H:8]>>[O:1]([C:2]1([C:3]([N+:5]#[C-:4])([H:9])[H:10])[C:6]([H:11])([H:12])[C:7]1([H:13])[H:14])[H:8]"
O       -0.22385858       1.70783054      -0.35920724
C       -0.19326076       0.33330831      -0.15958527
C        1.08573561      -0.33351250      -0.55500498
C        2.40710798       0.55545174       0.35209676
N        2.37397415      -0.53592290       0.78178209
C       -1.47548612      -0.37347625      -0.45970293
C       -0.99821255      -0.24755095       0.96216293
H        0.47020098       2.09632378       0.18506977
H        0.99255378      -1.41724123      -0.55161904
H        1.42134725      -0.03732919      -1.54639794
H       -2.29404904       0.26087669      -0.77029466
H       -1.43860846      -1.34306735      -0.93882084
H       -0.61747619      -1.12853220       1.46303906
H       -1.50996805       0.46284150       1.59648228
14
Frame=5 idx=010530 GeodesicLength=0.19341718396986357 rxn_smarts="[O:1]([C:2]1([C:3]([C:4]#[N:5])([H:9])[H:10])[C:6]([H:11])([H:12])[C:7]1([H:13])[H:14])[H:8]>>[O:1]([C:2]1([C:3]([N+:5]#[C-:4])([H:9])[H:10])[C:6]([H:11])([H:12])[C:7]1([H:13])[H:14])[H:8]"
O       -0.22008158       1.70677336      -0.35600840
C       -0.19223647       0.33158408      -0.15826189
C        1.08873711      -0.33608926      -0.55218044
C        2.43401489       0.55511884       0.32843534
N        2.36985478      -0.51619818       0.79659875
C       -1.47507251      -0.37140630      -0.46243255
C       -1.00077016      -0.24875701       0.96102657
H        0.46169862       2.09574271       0.20291203
H        0.99230499      -1.42003483      -0.54862003
H        1.40925390      -0.05043449      -1.55227906
H       -2.29232397       0.26450576      -0.77321455
H       -1.43907431      -1.34044069      -0.94278584
H       -0.62326442      -1.13148709       1.46128757
H       -1.51304087       0.46112310       1.59552251
14
Frame=6 idx=010530 GeodesicLength=0.23185562791110717 rxn_smarts="[O:1]([C:2]1([C:3]([C:4]#[N:5])([H:9])[H:10])[C:6]([H:11])([H:12])[C:7]1([H:13])[H:14])[H:8]>>[O:1]([C:2]1([C:3]([N+:5]#[C-:4])([H:9])[H:10])[C:6]([H:11])([H:12])[C:7]1([H:13])[H:14])[H:8]"
O       -0.21605591       1.70570037      -0.35236149
C       -0.19125466       0.32979013      -0.15687425
C        1.09171652      -0.33873957      -0.54929432
C        2.46086097       0.55395954       0.30437841
N        2.36609343      -0.49473725       0.81085381
C       -1.47470802      -0.36924919      -0.46526414
C       -1.00349180      -0.25007683       0.95982909
H        0.45341943       2.09478810       0.22084748
H        0.99213442      -1.42290837      -0.54504993
H        1.39700610      -0.06384488      -1.55780623
H       -2.29052190       0.26836731      -0.77624774
H       -1.43960133      -1.33767829      -0.94695634
H       -0.62932285      -1.13462589       1.45940102
H       -1.51627442       0.45925481       1.59454463
14
Frame=7 idx=010530 GeodesicLength=0.2702972134292703 rxn_smarts="[O:1]([C:2]1([C:3]([C:4]#[N:5])([H:9])[H:10])[C:6]([H:11])([H:12])[C:7]1([H:13])[H:14])[H:8]>>[O:1]([C:2]1([C:3]([N+:5]#[C-:4])([H:9])[H:10])[C:6]([H:11])([H:12])[C:7]1([H:13])[H:14])[H:8]"
O       -0.21180247       1.70462460      -0.34830543
C       -0.19031687       0.32793195      -0.15541990
C        1.09468481      -0.34146186      -0.54633738
C        2.48763573       0.55194016       0.28002379
N        2.36277062      -0.47158951       0.82445565
C       -1.47440036      -0.36701119      -0.46819990
C       -1.00638463      -0.25150671       0.95858743
H        0.44532995       2.09350787       0.23886865
H        0.99203260      -1.42587159      -0.54093831
H        1.38463968      -0.07752201      -1.56296510
H       -2.28866006       0.27245574      -0.77941514
H       -1.44019352      -1.33479863      -0.95132861
H       -0.63565275      -1.13795108       1.45741495
H       -1.51968273       0.45725225       1.59355929
14
Frame=8 idx=010530 GeodesicLength=0.3086808139769106 rxn_smarts="[O:1]([C:2]1([C:3]([C:4]#[N:5])([H:9])[H:10])[C:6]([H:11])([H:12])[C:7]1([H:13])[H:14])[H:8]>>[O:1]([C:2]1([C:3]([N+:5]#[C-:4])([H:9])[H:10])[C:6]([H:11])([H:12])[C:7]1([H:13])[H:14])[H:8]"
O       -0.20733974       1.70345758      -0.34383525
C       -0.18941924       0.32599439      -0.15387943
C        1.09765025      -0.34424681      -0.54327724
C        2.51428360       0.54899567       0.25538817
N        2.35990083      -0.44674535       0.83724547
C       -1.47411991      -0.36466987      -0.47120673
C       -1.00945956      -0.25302362       0.95726826
H        0.43736109       2.09182562       0.25698254
H        0.99200884      -1.42885663      -0.53628168
H        1.37220342      -0.09147331      -1.56766216
H       -2.28670398       0.27676246      -0.78266286
H       -1.44080053      -1.33173446      -0.95585419
H       -0.64227334      -1.14139878       1.45526816
H       -1.52329173       0.45511311       1.59250696
14
Frame=9 idx=010530 GeodesicLength=0.3471215657002424 rxn_smarts="[O:1]([C:2]1([C:3]([C:4]#[N:5])([H:9])[H:10])[C:6]([H:11])([H:12])[C:7]1([H:13])[H:14])[H:8]>>[O:1]([C:2]1([C:3]([N+:5]#[C-:4])([H:9])[H:10])[C:6]([H:11])([H:12])[C:7]1([H:13])[H:14])[H:8]"
O       -0.20265526       1.70227804      -0.33897370
C       -0.18855825       0.32399356      -0.15225514
C        1.10060479      -0.34710373      -0.54012081
C        2.54083589       0.54514126       0.23053196
N        2.35750616      -0.42020382       0.84921836
C       -1.47387723      -0.36224957      -0.47431977
C       -1.01270735      -0.25464274       0.95590913
H        0.42951655       2.08985574       0.27523309
H        0.99203190      -1.43193028      -0.53109833
H        1.35967888      -0.10569690      -1.57195183
H       -2.28466050       0.28128956      -0.78605952
H       -1.44145411      -1.32855977      -0.96058183
H       -0.64917647      -1.14502418       1.45302797
H       -1.52708500       0.45285282       1.59144041
14
Frame=10 idx=010530 GeodesicLength=0.3856683159359146 rxn_smarts="[O:1]([C:2]1([C:3]([C:4]#[N:5])([H:9])[H:10])[C:6]([H:11])([H:12])[C:7]1([H:13])[H:14])[H:8]>>[O:1]([C:2]1([C:3]([N+:5]#[C-:4])([H:9])[H:10])[C:6]([H:11])([H:12])[C:7]1([H:13])[H:14])[H:8]"
O       -0.19773605       1.70105067      -0.33369126
C       -0.18772646       0.32191932      -0.15051638
C        1.10355891      -0.35003977      -0.53683437
C        2.56731732       0.54035831       0.20538892
N        2.35564162      -0.39187676       0.86024541
C       -1.47365945      -0.35973067      -0.47753868
C       -1.01616164      -0.25636696       0.95449671
H        0.42175549       2.08756388       0.29369099
H        0.99211464      -1.43507934      -0.52531988
H        1.34706543      -0.12024855      -1.57579609
H       -2.28249942       0.28606019      -0.78961413
H       -1.44213423      -1.32523641      -0.96551049
H       -0.65642272      -1.14882964       1.45066632
H       -1.53111344       0.45045572       1.59033293
14
Frame=11 idx=010530 GeodesicLength=0.4242866680928578 rxn_smarts="[O:1]([C:2]1([C:3]([C:4]#[N:5])([H:9])[H:10])[C:6]([H:11])([H:12])[C:7]1([H:13])[H:14])[H:8]>>[O:1]([C:2]1([C:3]([N+:5]#[C-:4])([H:9])[H:10])[C:6]([H:11])([H:12])[C:7]1([H:13])[H:14])[H:8]"
O       -0.19261749       1.69976943      -0.32804751
C       -0.18692661       0.31978100      -0.14868768
C        1.10651055      -0.35303473      -0.53343356
C        2.59364712       0.53456766       0.18016651
N        2.35423471      -0.36188346       0.87026293
C       -1.47345401      -0.35713157      -0.48083975
C       -1.01977882      -0.25817228       0.95303740
H        0.41402602       2.08498932       0.31228414
H        0.99223056      -1.43827669      -0.51907485
H        1.33444206      -0.13503311      -1.57916791
H       -2.28022942       0.29102709      -0.79328324
H       -1.44282345      -1.32178882      -0.97060207
H       -0.66393552      -1.15276599       1.44819629
H       -1.53532570       0.44795216       1.58918931
14
Frame=12 idx=010530 GeodesicLength=0.4629787223508276 rxn_smarts="[O:1]([C:2]1([C:3]([C:4]#[N:5])([H:9])[H:10])[C:6]([H:11])([H:12])[C:7]1([H:13])[H:14])[H:8]>>[O:1]([C:2]1([C:3]([N+:5]#[C-:4])([H:9])[H:10])[C:6]([H:11])([H:12])[C:7]1([H:13])[H:14])[H:8]"
O       -0.18733205       1.69845616      -0.32210636
C       -0.18615980       0.31759168      -0.14678292
C        1.10947140      -0.35608021      -0.52992820
C        2.61979065       0.52772033       0.15503874
N        2.35328205      -0.33035157       0.87919853
C       -1.47326181      -0.35446723      -0.48420746
C       -1.02354115      -0.26004695       0.95155139
H        0.40626589       2.08220424       0.33095658
H        0.99236710      -1.44152519      -0.51246243
H        1.32188630      -0.14996481      -1.58206308
H       -2.27787288       0.29616631      -0.79704969
H       -1.44351659      -1.31825033      -0.97582878
H       -0.67167296      -1.15682089       1.44565355
H       -1.53970615       0.44536845       1.58803011
14
Frame=13 idx=010530 GeodesicLength=0.5016910148076514 rxn_smarts="[O:1]([C:2]1([C:3]([C:4]#[N:5])([H:9])[H:10])[C:6]([H:11])([H:12])[C:7]1([H:13])[H:14])[H:8]>>[O:1]([C:2]1([C:3]([N+:5]#[C-:4])([H:9])[H:10])[C:6]([H:11])([H:12])[C:7]1([H:13])[H:14])[H:8]"
O       -0.18192360       1.69705387      -0.31593366
C       -0.18542860       0.31535409      -0.14482339
C        1.11244007      -0.35913729      -0.52631926
C        2.64569450       0.51973152       0.13024652
N        2.35271860      -0.29744285       0.88697083
C       -1.47307949      -0.35175337      -0.48759795
C       -1.02739769      -0.26195843       0.95001658
H        0.39841838       2.07919596       0.34960357
H        0.99248906      -1.44474258      -0.50561652
H        1.30946853      -0.16490572      -1.58441440
H       -2.27545507       0.30140487      -0.80084813
H       -1.44420986      -1.31461541      -0.98110396
H       -0.67954217      -1.16090361       1.44301342
H       -1.54419264       0.44271894       1.58680636
14
Frame=14 idx=010530 GeodesicLength=0.540490924774773 rxn_smarts="[O:1]([C:2]1([C:3]([C:4]#[N:5])([H:9])[H:10])[C:6]([H:11])([H:12])[C:7]1([H:13])[H:14])[H:8]>>[O:1]([C:2]1([C:3]([N+:5]#[C-:4])([H:9])[H:10])[C:6]([H:11])([H:12])[C:7]1([H:13])[H:14])[H:8]"
O       -0.17639338       1.69561067      -0.30954040
C       -0.18472653       0.31307770      -0.14279752
C        1.11542549      -0.36222519      -0.52260958
C        2.67138724       0.51060418       0.10581596
N        2.35257165      -0.26315771       0.89352441
C       -1.47289975      -0.34899203      -0.49103023
C       -1.03136302      -0.26391574       0.94847228
H        0.39042996       2.07604824       0.36826614
H        0.99259774      -1.44798339      -0.49854379
H        1.29720777      -0.17987790      -1.58628232
H       -2.27296606       0.30676550      -0.80471234
H       -1.44489231      -1.31091313      -0.98647186
H       -0.68756831      -1.16505800       1.44032998
H       -1.54881048       0.44001679       1.58557926
14
Frame=15 idx=010530 GeodesicLength=0.5794021219624537 rxn_smarts="[O:1]([C:2]1([C:3]([C:4]#[N:5])([H:9])[H:10])[C:6]([H:11])([H:12])[C:7]1([H:13])[H:14])[H:8]>>[O:1]([C:2]1([C:3]([N+:5]#[C-:4])([H:9])[H:10])[C:6]([H:11])([H:12])[C:7]1([H:13])[H:14])[H:8]"
O       -0.17071800       1.69412000      -0.30288049
C       -0.18404132       0.31075609      -0.14066880
C        1.11842432      -0.36536262      -0.51876095
C        2.69687226       0.50032962       0.08168026
N        2.35287233      -0.22740068       0.89871963
C       -1.47269401      -0.34616697      -0.49450859
C       -1.03546032      -0.26592857       0.94690487
H        0.38225633       2.07275410       0.38702171
H        0.99270021      -1.45126441      -0.49116895
H        1.28507423      -0.19493663      -1.58763416
H       -2.27034862       0.31228039      -0.80865669
H       -1.44553417      -1.30712224      -0.99194317
H       -0.69580785      -1.16930813       1.43757435
H       -1.55359539       0.43725005       1.58432098
14
Frame=16 idx=010530 GeodesicLength=0.6185442821737334 rxn_smarts="[O:1]([C:2]1([C:3]([C:4]#[N:5])([H:9])[H:10])[C:6]([H:11])([H:12])[C:7]1([H:13])[H:14])[H:8]>>[O:1]([C:2]1([C:3]([N+:5]#[C-:4])([H:9])[H:10])[C:6]([H:11])([H:12])[C:7]1([H:13])[H:14])[H:8]"
O       -0.16487459       1.69252939      -0.29592558
C       -0.18337161       0.30837880      -0.13843733
C        1.12142646      -0.36853009      -0.51475564
C        2.72222011       0.48883036       0.05788045
N        2.35354667      -0.19000994       0.90249421
C       -1.47247496      -0.34327671      -0.49803554
C       -1.03967412      -0.26800722       0.94528585
H        0.37392509       2.06926185       0.40588672
H        0.99276874      -1.45453512      -0.48345966
H        1.27305382      -0.21009568      -1.58844422
H       -2.26761764       0.31792761      -0.81265762
H       -1.44616765      -1.30320777      -0.99752885
H       -0.70425054      -1.17364225       1.43469262
H       -1.55850979       0.43437677       1.58300460
