11
Frame=0 idx=005454 GeodesicLength=0.0 rxn_smarts="[O:1]=[C:2]1[N:3]([H:7])[C:4]([H:8])([H:9])[C:5]([H:10])([H:11])[O:6]1>>[O:1]([C@:2]12[N:3]([H:7])[C@@:4]1([H:9])[C:5]([H:10])([H:11])[O:6]2)[H:8]"
O        1.61517950      -0.92481003      -0.95926191
C        0.99145531      -0.08823888      -0.19378373
N        0.61739420      -0.30011214       1.13070418
C       -0.62565745      -0.40952407       0.21720103
C       -0.75455470       1.03961780      -0.18590393
O        0.64385248       1.15751349      -0.61005246
H        0.90147250      -1.24452529       1.37353761
H        0.37276208      -1.12958299      -0.91994566
H       -1.40850350      -1.06199076       0.58040278
H       -0.95911713       1.75012601       0.61690559
H       -1.39428333       1.21152681      -1.04980350
11
Frame=1 idx=005454 GeodesicLength=0.0743699429371512 rxn_smarts="[O:1]=[C:2]1[N:3]([H:7])[C:4]([H:8])([H:9])[C:5]([H:10])([H:11])[O:6]1>>[O:1]([C@:2]12[N:3]([H:7])[C@@:4]1([H:9])[C:5]([H:10])([H:11])[O:6]2)[H:8]"
O        1.61956616      -0.91989460      -0.95930030
C        1.00070547      -0.08380556      -0.19108325
N        0.61506944      -0.30318846       1.12920798
C       -0.62338357      -0.41154439       0.21593566
C       -0.75356527       1.03877204      -0.18654169
O        0.64416047       1.16104421      -0.60709394
H        0.90323615      -1.24455993       1.37740918
H        0.36069107      -1.13931188      -0.92918082
H       -1.41093810      -1.05500696       0.58512141
H       -0.96248752       1.74778644       0.61637456
H       -1.39305430       1.20970908      -1.05084879
11
Frame=2 idx=005454 GeodesicLength=0.14873008597710086 rxn_smarts="[O:1]=[C:2]1[N:3]([H:7])[C:4]([H:8])([H:9])[C:5]([H:10])([H:11])[O:6]1>>[O:1]([C@:2]12[N:3]([H:7])[C@@:4]1([H:9])[C:5]([H:10])([H:11])[O:6]2)[H:8]"
O        1.62380237      -0.91485070      -0.95931468
C        1.01014201      -0.07916332      -0.18816398
N        0.61280745      -0.30626884       1.12770051
C       -0.62102089      -0.41360269       0.21461423
C       -0.75253888       1.03789973      -0.18718458
O        0.64449467       1.16462821      -0.60406567
H        0.90502493      -1.24452917       1.38135760
H        0.34813756      -1.14934769      -0.93853285
H       -1.41321338      -1.04799974       0.58969517
H       -0.96589686       1.74537684       0.61583028
H       -1.39173898       1.20785735      -1.05193602
11
Frame=3 idx=005454 GeodesicLength=0.22305477658197126 rxn_smarts="[O:1]=[C:2]1[N:3]([H:7])[C:4]([H:8])([H:9])[C:5]([H:10])([H:11])[O:6]1>>[O:1]([C@:2]12[N:3]([H:7])[C@@:4]1([H:9])[C:5]([H:10])([H:11])[O:6]2)[H:8]"
O        1.62788087      -0.90967157      -0.95930112
C        1.01977192      -0.07430321      -0.18501668
N        0.61061162      -0.30935005       1.12618119
C       -0.61856438      -0.41569812       0.21323459
C       -0.75147290       1.03700162      -0.18783255
O        0.64485693       1.16826734      -0.60096700
H        0.90683913      -1.24442801       1.38538612
H        0.33507290      -1.15970537      -0.94799984
H       -1.41531985      -1.04098399       0.59410786
H       -0.96934114       1.74289812       0.61527216
H       -1.39033510       1.20597324      -1.05306473
11
Frame=4 idx=005454 GeodesicLength=0.2973027992278056 rxn_smarts="[O:1]=[C:2]1[N:3]([H:7])[C:4]([H:8])([H:9])[C:5]([H:10])([H:11])[O:6]1>>[O:1]([C@:2]12[N:3]([H:7])[C@@:4]1([H:9])[C:5]([H:10])([H:11])[O:6]2)[H:8]"
O        1.63179657      -0.90435167      -0.95925496
C        1.02960163      -0.06921859      -0.18163354
N        0.60848552      -0.31242859       1.12464860
C       -0.61601017      -0.41782993       0.21179468
C       -0.75036511       1.03607860      -0.18848538
O        0.64524943       1.17196211      -0.59779822
H        0.90867883      -1.24425124       1.38949835
H        0.32147043      -1.17039576      -0.95757923
H       -1.41724929      -1.03397566       0.59834355
H       -0.97281582       1.74035195       0.61470007
H       -1.38884202       1.20405877      -1.05423394
11
Frame=5 idx=005454 GeodesicLength=0.3714108254510341 rxn_smarts="[O:1]=[C:2]1[N:3]([H:7])[C:4]([H:8])([H:9])[C:5]([H:10])([H:11])[O:6]1>>[O:1]([C@:2]12[N:3]([H:7])[C@@:4]1([H:9])[C:5]([H:10])([H:11])[O:6]2)[H:8]"
O        1.63554195      -0.89888691      -0.95917152
C        1.03963977      -0.06390475      -0.17800943
N        0.60643317      -0.31550081       1.12310027
C       -0.61335588      -0.41999744       0.21029138
C       -0.74921407       1.03513185      -0.18914280
O        0.64567639       1.17571209      -0.59455987
H        0.91054546      -1.24399341       1.39369834
H        0.30730714      -1.18142577      -0.96726362
H       -1.41899569      -1.02699200       0.60238500
H       -0.97631701       1.73774055       0.61411616
H       -1.38726124       1.20211661      -1.05544392
11
Frame=6 idx=005454 GeodesicLength=0.4459431139833317 rxn_smarts="[O:1]=[C:2]1[N:3]([H:7])[C:4]([H:8])([H:9])[C:5]([H:10])([H:11])[O:6]1>>[O:1]([C@:2]12[N:3]([H:7])[C@@:4]1([H:9])[C:5]([H:10])([H:11])[O:6]2)[H:8]"
O        1.63904776      -0.89318709      -0.95905518
C        1.04994192      -0.05826772      -0.17406138
N        0.60446186      -0.31857101       1.12155163
C       -0.61053949      -0.42220931       0.20868816
C       -0.74799667       1.03415175      -0.18981788
O        0.64614473       1.17957023      -0.59120075
H        0.91244964      -1.24365923       1.39797205
H        0.29240391      -1.19298125      -0.97707889
H       -1.42051374      -1.02000689       0.60622642
H       -0.97987201       1.73502398       0.61349918
H       -1.38552792       1.20013654      -1.05672337
11
Frame=7 idx=005454 GeodesicLength=0.5200536038157539 rxn_smarts="[O:1]=[C:2]1[N:3]([H:7])[C:4]([H:8])([H:9])[C:5]([H:10])([H:11])[O:6]1>>[O:1]([C@:2]12[N:3]([H:7])[C@@:4]1([H:9])[C:5]([H:10])([H:11])[O:6]2)[H:8]"
O        1.64236514      -0.88734534      -0.95889966
C        1.06045505      -0.05240736      -0.16987041
N        0.60257362      -0.32162821       1.11997847
C       -0.60762416      -0.42445653       0.20702391
C       -0.74673292       1.03314916      -0.19049705
O        0.64665825       1.18347916      -0.58776556
H        0.91438241      -1.24323147       1.40234566
H        0.27691798      -1.20485425      -0.98699195
H       -1.42184052      -1.01307924       0.60985442
H       -0.98345274       1.73224598       0.61287022
H       -1.38370211       1.19812810      -1.05804805
11
Frame=8 idx=005454 GeodesicLength=0.5939783259119005 rxn_smarts="[O:1]=[C:2]1[N:3]([H:7])[C:4]([H:8])([H:9])[C:5]([H:10])([H:11])[O:6]1>>[O:1]([C@:2]12[N:3]([H:7])[C@@:4]1([H:9])[C:5]([H:10])([H:11])[O:6]2)[H:8]"
O        1.64545698      -0.88131467      -0.95871137
C        1.07121362      -0.04627107      -0.16539824
N        0.60077274      -0.32467397       1.11838446
C       -0.60457886      -0.42674408       0.20527409
C       -0.74541077       1.03212019      -0.19118742
O        0.64722516       1.18747018      -0.58422647
H        0.91634863      -1.24270981       1.40681004
H        0.26075264      -1.21714869      -0.99699255
H       -1.42295595      -1.00620355       0.61325683
H       -0.98707246       1.72938507       0.61222420
H       -1.38175174       1.19609039      -1.05943357
11
Frame=9 idx=005454 GeodesicLength=0.6686558766378491 rxn_smarts="[O:1]=[C:2]1[N:3]([H:7])[C:4]([H:8])([H:9])[C:5]([H:10])([H:11])[O:6]1>>[O:1]([C@:2]12[N:3]([H:7])[C@@:4]1([H:9])[C:5]([H:10])([H:11])[O:6]2)[H:8]"
O        1.64831700      -0.87494139      -0.95845623
C        1.08228722      -0.03974159      -0.16053810
N        0.59907998      -0.32772023       1.11677974
C       -0.60131960      -0.42908107       0.20338613
C       -0.74400097       1.03105123      -0.19190849
O        0.64785073       1.19160574      -0.58051602
H        0.91837230      -1.24211410       1.41133366
H        0.24357772      -1.23012683      -1.00711523
H       -1.42379921      -0.99932861       0.61642712
H       -0.99076549       1.72638276       0.61152987
H       -1.37959969       1.19401408      -1.06092246
11
Frame=10 idx=005454 GeodesicLength=0.7431675627369807 rxn_smarts="[O:1]=[C:2]1[N:3]([H:7])[C:4]([H:8])([H:9])[C:5]([H:10])([H:11])[O:6]1>>[O:1]([C@:2]12[N:3]([H:7])[C@@:4]1([H:9])[C:5]([H:10])([H:11])[O:6]2)[H:8]"
O        1.65096041      -0.86832492      -0.95815418
C        1.09363468      -0.03291764      -0.15536976
N        0.59749137      -0.33075834       1.11514425
C       -0.59790758      -0.43146831       0.20139556
C       -0.74252017       1.02994732      -0.19265077
O        0.64854740       1.19583568      -0.57667042
H        0.92044004      -1.24141974       1.41594702
H        0.22556630      -1.24355106      -1.01731424
H       -1.42441049      -0.99251978       0.61936342
H       -0.99451347       1.72328138       0.61080485
H       -1.37728849       1.19189541      -1.06249573
11
Frame=11 idx=005454 GeodesicLength=0.8175804952808814 rxn_smarts="[O:1]=[C:2]1[N:3]([H:7])[C:4]([H:8])([H:9])[C:5]([H:10])([H:11])[O:6]1>>[O:1]([C@:2]12[N:3]([H:7])[C@@:4]1([H:9])[C:5]([H:10])([H:11])[O:6]2)[H:8]"
O        1.65334825      -0.86143431      -0.95780924
C        1.10526306      -0.02576089      -0.14986630
N        0.59601668      -0.33378294       1.11347453
C       -0.59431923      -0.43390383       0.19928624
C       -0.74095742       1.02881090      -0.19341684
O        0.64932079       1.20018815      -0.57265529
H        0.92255946      -1.24062313       1.42064802
H        0.20665938      -1.25752582      -1.02759053
H       -1.42476970      -0.98577020       0.62205012
H       -0.99833092       1.72005719       0.61004740
H       -1.37479035       1.18974489      -1.06416811
11
Frame=12 idx=005454 GeodesicLength=0.8919102518401322 rxn_smarts="[O:1]=[C:2]1[N:3]([H:7])[C:4]([H:8])([H:9])[C:5]([H:10])([H:11])[O:6]1>>[O:1]([C@:2]12[N:3]([H:7])[C@@:4]1([H:9])[C:5]([H:10])([H:11])[O:6]2)[H:8]"
O        1.65548481      -0.85423598      -0.95741453
C        1.11718503      -0.01826510      -0.14401479
N        0.59466790      -0.33679651       1.11176226
C       -0.59054253      -0.43639151       0.19704838
C       -0.73930675       1.02763667      -0.19421328
O        0.65018162       1.20466940      -0.56844311
H        0.92473959      -1.23972224       1.42543338
H        0.18677218      -1.27206850      -1.03793857
H       -1.42486622      -0.97907649       0.62449038
H       -1.00223502       1.71669243       0.60924845
H       -1.37208061       1.18755784      -1.06595856
11
Frame=13 idx=005454 GeodesicLength=0.9661760977358423 rxn_smarts="[O:1]=[C:2]1[N:3]([H:7])[C:4]([H:8])([H:9])[C:5]([H:10])([H:11])[O:6]1>>[O:1]([C@:2]12[N:3]([H:7])[C@@:4]1([H:9])[C:5]([H:10])([H:11])[O:6]2)[H:8]"
O        1.65735249      -0.84670094      -0.95696920
C        1.12941538      -0.01041121      -0.13779935
N        0.59345556      -0.33979902       1.11000263
C       -0.58655933      -0.43893892       0.19466883
C       -0.73755747       1.02641985      -0.19504635
O        0.65114132       1.20930152      -0.56399895
H        0.92698736      -1.23871111       1.43030539
H        0.16581612      -1.28721373      -1.04835743
H       -1.42468316      -0.97244462       0.62668247
H       -1.00624350       1.71317160       0.60839957
H       -1.36912478       1.18532657      -1.06788759
11
Frame=14 idx=005454 GeodesicLength=1.0404598236941769 rxn_smarts="[O:1]=[C:2]1[N:3]([H:7])[C:4]([H:8])([H:9])[C:5]([H:10])([H:11])[O:6]1>>[O:1]([C@:2]12[N:3]([H:7])[C@@:4]1([H:9])[C:5]([H:10])([H:11])[O:6]2)[H:8]"
O        1.65898275      -0.83877254      -0.95646327
C        1.14196864      -0.00218042      -0.13120958
N        0.59239148      -0.34279722       1.10817855
C       -0.58235220      -0.44155251       0.19212712
C       -0.73570152       1.02515507      -0.19592485
O        0.65221100       1.21410218      -0.55929528
H        0.92930862      -1.23759612       1.43524686
H        0.14365931      -1.30300459      -1.05878833
H       -1.42420509      -0.96587910       0.62861277
H       -1.01036677       1.70947365       0.60749366
H       -1.36589622       1.18305162      -1.06997766
11
Frame=15 idx=005454 GeodesicLength=1.1147292149326486 rxn_smarts="[O:1]=[C:2]1[N:3]([H:7])[C:4]([H:8])([H:9])[C:5]([H:10])([H:11])[O:6]1>>[O:1]([C@:2]12[N:3]([H:7])[C@@:4]1([H:9])[C:5]([H:10])([H:11])[O:6]2)[H:8]"
O        1.66037230      -0.83042607      -0.95589006
C        1.15485007       0.00643423      -0.12423328
N        0.59148922      -0.34578632       1.10628408
C       -0.57790779      -0.44423731       0.18941213
C       -0.73373037       1.02383825      -0.19685342
O        0.65339977       1.21908339      -0.55429654
H        0.93171183      -1.23636636       1.44026311
H        0.12021989      -1.31946709      -1.06924221
H       -1.42341683      -0.95938361       0.63027968
H       -1.01462128       1.70558102       0.60652136
H       -1.36236680       1.18072986      -1.07224485
11
Frame=16 idx=005454 GeodesicLength=1.1889893347347993 rxn_smarts="[O:1]=[C:2]1[N:3]([H:7])[C:4]([H:8])([H:9])[C:5]([H:10])([H:11])[O:6]1>>[O:1]([C@:2]12[N:3]([H:7])[C@@:4]1([H:9])[C:5]([H:10])([H:11])[O:6]2)[H:8]"
O        1.66154355      -0.82161483      -0.95524019
C        1.16806507       0.01544442      -0.11686404
N        0.59076112      -0.34877100       1.10430273
C       -0.57321005      -0.44700159       0.18650511
C       -0.73163436       1.02246402      -0.19783985
O        0.65471683       1.22426428      -0.54896763
H        0.93420367      -1.23502191       1.44534408
H        0.09537923      -1.33662965      -1.07967651
H       -1.42230148      -0.95296456       0.63167554
H       -1.01902117       1.70147258       0.60547220
H       -1.35850240       1.17835825      -1.07471145
