11
Frame=0 idx=000872 GeodesicLength=0.0 rxn_smarts="[N:1]#[C:2][C@@:3]1([H:7])[C:4]([H:8])([H:9])[C:5]([H:10])([H:11])[O:6]1>>[N+:1](#[C-:2])[C@@:3]1([H:7])[C:4]([H:8])([H:9])[C:5]([H:10])([H:11])[O:6]1"
N        1.92857019      -0.73987826      -0.43068190
C        2.34600348       0.02115695       0.36678717
C        0.59720912       0.63268891       0.16657243
C       -0.49748154       0.12301315      -0.76752207
C       -1.03310049      -0.51583970       0.51736063
O       -0.07184256       0.25380015       1.28843979
H        0.95544521       1.65395033       0.12572414
H       -1.11194634       0.95550879      -1.10998893
H       -0.22637929      -0.52273256      -1.59209759
H       -2.05261293      -0.27850208       0.81590741
H       -0.83386485      -1.58316572       0.61949892
11
Frame=1 idx=000872 GeodesicLength=0.03910089553704586 rxn_smarts="[N:1]#[C:2][C@@:3]1([H:7])[C:4]([H:8])([H:9])[C:5]([H:10])([H:11])[O:6]1>>[N+:1](#[C-:2])[C@@:3]1([H:7])[C:4]([H:8])([H:9])[C:5]([H:10])([H:11])[O:6]1"
N        1.95063701      -0.71653200      -0.44470226
C        2.35946667       0.02687521       0.37029758
C        0.60268624       0.62248173       0.16576718
C       -0.49766497       0.11873796      -0.76611119
C       -1.03963548      -0.51362215       0.51926236
O       -0.06479376       0.23651773       1.29075250
H        0.94129760       1.65158068       0.13008574
H       -1.10657770       0.95187245      -1.11633606
H       -0.22999862      -0.53398608      -1.58662640
H       -2.05473279      -0.25903872       0.81932247
H       -0.86068420      -1.58488681       0.61828808
11
Frame=2 idx=000872 GeodesicLength=0.07729661315068984 rxn_smarts="[N:1]#[C:2][C@@:3]1([H:7])[C:4]([H:8])([H:9])[C:5]([H:10])([H:11])[O:6]1>>[N+:1](#[C-:2])[C@@:3]1([H:7])[C:4]([H:8])([H:9])[C:5]([H:10])([H:11])[O:6]1"
N        1.97220261      -0.69271044      -0.45856916
C        2.37261947       0.03227061       0.37375303
C        0.60813991       0.61236068       0.16487676
C       -0.49782916       0.11444892      -0.76476045
C       -1.04597933      -0.51135929       0.52114883
O       -0.05782077       0.21908171       1.29286785
H        0.92711863       1.64886873       0.13468498
H       -1.10126391       0.94802646      -1.12281688
H       -0.23345001      -0.54523597      -1.58109349
H       -2.05633438      -0.23958452       0.82280912
H       -0.88740306      -1.58616690       0.61709941
11
Frame=3 idx=000872 GeodesicLength=0.11456604903379697 rxn_smarts="[N:1]#[C:2][C@@:3]1([H:7])[C:4]([H:8])([H:9])[C:5]([H:10])([H:11])[O:6]1>>[N+:1](#[C-:2])[C@@:3]1([H:7])[C:4]([H:8])([H:9])[C:5]([H:10])([H:11])[O:6]1"
N        1.99317779      -0.66852091      -0.47217428
C        2.38542946       0.03726686       0.37717970
C        0.61356426       0.60236476       0.16388423
C       -0.49799422       0.11018926      -0.76347816
C       -1.05209228      -0.50906912       0.52301207
O       -0.05097042       0.20160632       1.29477164
H        0.91297399       1.64583499       0.13945170
H       -1.09605673       0.94401036      -1.12939733
H       -0.23675589      -0.55640693      -1.57553549
H       -2.05741099      -0.22026809       0.82634725
H       -0.91386496      -1.58700751       0.61593867
11
Frame=4 idx=000872 GeodesicLength=0.1509047466571542 rxn_smarts="[N:1]#[C:2][C@@:3]1([H:7])[C:4]([H:8])([H:9])[C:5]([H:10])([H:11])[O:6]1>>[N+:1](#[C-:2])[C@@:3]1([H:7])[C:4]([H:8])([H:9])[C:5]([H:10])([H:11])[O:6]1"
N        2.01348908      -0.64407314      -0.48541405
C        2.39786005       0.04177278       0.38059473
C        0.61895140       0.59253025       0.16277517
C       -0.49817797       0.10600500      -0.76226334
C       -1.05793594      -0.50676671       0.52484110
O       -0.04429807       0.18422173       1.29644710
H        0.89892504       1.64249076       0.14430504
H       -1.09101175       0.93986038      -1.13602939
H       -0.23993120      -0.56741115      -1.56997802
H       -2.05797241      -0.20122507       0.82990562
H       -0.93989822      -1.58740484       0.61481603
11
Frame=5 idx=000872 GeodesicLength=0.1862954215448086 rxn_smarts="[N:1]#[C:2][C@@:3]1([H:7])[C:4]([H:8])([H:9])[C:5]([H:10])([H:11])[O:6]1>>[N+:1](#[C-:2])[C@@:3]1([H:7])[C:4]([H:8])([H:9])[C:5]([H:10])([H:11])[O:6]1"
N        2.03304494      -0.61954638      -0.49814011
C        2.40986638       0.04573836       0.38401783
C        0.62430417       0.58290306       0.16152819
C       -0.49840180       0.10195420      -0.76112292
C       -1.06346736      -0.50448434       0.52662946
O       -0.03784086       0.16707413       1.29790472
H        0.88504867       1.63888628       0.14913305
H       -1.08617611       0.93564641      -1.14266164
H       -0.24302099      -0.57815406      -1.56447086
H       -2.05803129      -0.18261251       0.83345600
H       -0.96532575      -1.58740514       0.61372630
11
Frame=6 idx=000872 GeodesicLength=0.22088138437179014 rxn_smarts="[N:1]#[C:2][C@@:3]1([H:7])[C:4]([H:8])([H:9])[C:5]([H:10])([H:11])[O:6]1>>[N+:1](#[C-:2])[C@@:3]1([H:7])[C:4]([H:8])([H:9])[C:5]([H:10])([H:11])[O:6]1"
N        2.05192213      -0.59484630      -0.51043278
C        2.42150911       0.04916017       0.38745952
C        0.62961300       0.57346828       0.16015469
C       -0.49866104       0.09800819      -0.76006052
C       -1.06872126      -0.50221068       0.52838512
O       -0.03158555       0.15011041       1.29914146
H        0.87132267       1.63502691       0.15398541
H       -1.08153874       0.93134481      -1.14933222
H       -0.24601869      -0.58869173      -1.55900854
H       -2.05761174      -0.16435929       0.83701837
H       -0.99022989      -1.58701077       0.61268949
11
Frame=7 idx=000872 GeodesicLength=0.254694127793887 rxn_smarts="[N:1]#[C:2][C@@:3]1([H:7])[C:4]([H:8])([H:9])[C:5]([H:10])([H:11])[O:6]1>>[N+:1](#[C-:2])[C@@:3]1([H:7])[C:4]([H:8])([H:9])[C:5]([H:10])([H:11])[O:6]1"
N        2.07006201      -0.57012883      -0.52216524
C        2.43275578       0.05196916       0.39091672
C        0.63488114       0.56426856       0.15864524
C       -0.49897400       0.09422241      -0.75907366
C       -1.07366576      -0.49997319       0.53009788
O       -0.02557370       0.13348143       1.30017667
H        0.85781611       1.63095099       0.15875189
H       -1.07715175       0.92701307      -1.15598697
H       -0.24895632      -0.59892521      -1.55362464
H       -2.05675323      -0.14661604       0.84054844
H       -1.01444028      -1.58626232       0.61171367
11
Frame=8 idx=000872 GeodesicLength=0.2876166713694465 rxn_smarts="[N:1]#[C:2][C@@:3]1([H:7])[C:4]([H:8])([H:9])[C:5]([H:10])([H:11])[O:6]1>>[N+:1](#[C-:2])[C@@:3]1([H:7])[C:4]([H:8])([H:9])[C:5]([H:10])([H:11])[O:6]1"
N        2.08738181      -0.54564155      -0.53320072
C        2.44357356       0.05411271       0.39446287
C        0.64009848       0.55533822       0.15695627
C       -0.49937220       0.09066014      -0.75816943
C       -1.07824093      -0.49779246       0.53176194
O       -0.01986632       0.11737176       1.30098841
H        0.84459164       1.62671269       0.16332322
H       -1.07308897       0.92272214      -1.16254570
H       -0.25189126      -0.60874839      -1.54838764
H       -2.05547554      -0.12955204       0.84403604
H       -1.03771028      -1.58518323       0.61077473
11
Frame=9 idx=000872 GeodesicLength=0.31991719643244754 rxn_smarts="[N:1]#[C:2][C@@:3]1([H:7])[C:4]([H:8])([H:9])[C:5]([H:10])([H:11])[O:6]1>>[N+:1](#[C-:2])[C@@:3]1([H:7])[C:4]([H:8])([H:9])[C:5]([H:10])([H:11])[O:6]1"
N        2.10397975      -0.52124949      -0.54360400
C        2.45400016       0.05557126       0.39802407
C        0.64527240       0.54667714       0.15512874
C       -0.49983519       0.08730316      -0.75733037
C       -1.08250676      -0.49567424       0.53337795
O       -0.01442967       0.10174578       1.30163436
H        0.83165012       1.62230669       0.16769982
H       -1.06931576       0.91845820      -1.16904348
H       -0.25480177      -0.61819427      -1.54325235
H       -2.05385307      -0.11311275       0.84744799
H       -1.06016022      -1.58383148       0.60991726
11
Frame=10 idx=000872 GeodesicLength=0.35147940619705426 rxn_smarts="[N:1]#[C:2][C@@:3]1([H:7])[C:4]([H:8])([H:9])[C:5]([H:10])([H:11])[O:6]1>>[N+:1](#[C-:2])[C@@:3]1([H:7])[C:4]([H:8])([H:9])[C:5]([H:10])([H:11])[O:6]1"
N        2.11981693      -0.49718643      -0.55327076
C        2.46401608       0.05633701       0.40167606
C        0.65039596       0.53830410       0.15312051
C       -0.50039331       0.08419601      -0.75656815
C       -1.08641536      -0.49363316       0.53494448
O       -0.00930849       0.08673434       1.30209339
H        0.81902437       1.61779756       0.17180012
H       -1.06589022       0.91428080      -1.17541387
H       -0.25774556      -0.62718566      -1.53829180
H       -2.05189609      -0.09741938       0.85079690
H       -1.08160432      -1.58222519       0.60911312
11
Frame=11 idx=000872 GeodesicLength=0.38248994290013877 rxn_smarts="[N:1]#[C:2][C@@:3]1([H:7])[C:4]([H:8])([H:9])[C:5]([H:10])([H:11])[O:6]1>>[N+:1](#[C-:2])[C@@:3]1([H:7])[C:4]([H:8])([H:9])[C:5]([H:10])([H:11])[O:6]1"
N        2.13498658      -0.47331878      -0.56228402
C        2.47366937       0.05643008       0.40535692
C        0.65547676       0.53020176       0.15096588
C       -0.50102245       0.08130775      -0.75586960
C       -1.09002333      -0.49166496       0.53646822
O       -0.00445496       0.07227032       1.30240737
H        0.80669233       1.61318034       0.17565916
H       -1.06276713       0.91017009      -1.18169696
H       -0.26069895      -0.63578406      -1.53346441
H       -2.04966942      -0.08238254       0.85406827
H       -1.10218880      -1.58041001       0.60838918
11
Frame=12 idx=000872 GeodesicLength=0.41305764990469707 rxn_smarts="[N:1]#[C:2][C@@:3]1([H:7])[C:4]([H:8])([H:9])[C:5]([H:10])([H:11])[O:6]1>>[N+:1](#[C-:2])[C@@:3]1([H:7])[C:4]([H:8])([H:9])[C:5]([H:10])([H:11])[O:6]1"
N        2.14959047      -0.44953903      -0.57071674
C        2.48301978       0.05591259       0.40903751
C        0.66051284       0.52233715       0.14867647
C       -0.50170796       0.07859416      -0.75522850
C       -1.09337554      -0.48975186       0.53795624
O        0.00017189       0.05823980       1.30258483
H        0.79459605       1.60845373       0.17933571
H       -1.05990107       0.90608256      -1.18792034
H       -0.26365521      -0.64406787      -1.52874115
H       -2.04718474      -0.06787674       0.85728677
H       -1.12206650      -1.57838448       0.60772920
11
Frame=13 idx=000872 GeodesicLength=0.4432764763060056 rxn_smarts="[N:1]#[C:2][C@@:3]1([H:7])[C:4]([H:8])([H:9])[C:5]([H:10])([H:11])[O:6]1>>[N+:1](#[C-:2])[C@@:3]1([H:7])[C:4]([H:8])([H:9])[C:5]([H:10])([H:11])[O:6]1"
N        2.16372162      -0.42570646      -0.57866013
C        2.49210946       0.05484084       0.41267008
C        0.66550690       0.51467837       0.14627708
C       -0.50242691       0.07600509      -0.75463654
C       -1.09651975      -0.48787650       0.53941641
O        0.00462328       0.04451564       1.30264156
H        0.78267535       1.60360991       0.18290272
H       -1.05723440       0.90197122      -1.19412594
H       -0.26659052      -0.65212453      -1.52408243
H       -2.04445211      -0.05376411       0.86046583
H       -1.14141292      -1.57614947       0.60713136
11
Frame=14 idx=000872 GeodesicLength=0.4732191001431892 rxn_smarts="[N:1]#[C:2][C@@:3]1([H:7])[C:4]([H:8])([H:9])[C:5]([H:10])([H:11])[O:6]1>>[N+:1](#[C-:2])[C@@:3]1([H:7])[C:4]([H:8])([H:9])[C:5]([H:10])([H:11])[O:6]1"
N        2.17745721      -0.40168409      -0.58618895
C        2.50097241       0.05325879       0.41621441
C        0.67046194       0.50719582       0.14378595
C       -0.50315879       0.07349554      -0.75408875
C       -1.09949771      -0.48602255       0.54085602
O        0.00894375       0.03097985       1.30258372
H        0.77087574       1.59863385       0.18642441
H       -1.05471723       0.89779052      -1.20035120
H       -0.26947899      -0.66002973      -1.51945423
H       -2.04147440      -0.03991989       0.86362404
H       -1.16038393      -1.57369811       0.60659458
11
Frame=15 idx=000872 GeodesicLength=0.5029402986685961 rxn_smarts="[N:1]#[C:2][C@@:3]1([H:7])[C:4]([H:8])([H:9])[C:5]([H:10])([H:11])[O:6]1>>[N+:1](#[C-:2])[C@@:3]1([H:7])[C:4]([H:8])([H:9])[C:5]([H:10])([H:11])[O:6]1"
N        2.19084632      -0.37736368      -0.59334827
C        2.50963893       0.05120160       0.41962826
C        0.67537837       0.49986985       0.14121808
C       -0.50388803       0.07102924      -0.75358147
C       -1.10234006      -0.48417723       0.54228002
O        0.01316529       0.01753583       1.30240996
H        0.75915661       1.59351867       0.18995760
H       -1.05230628       0.89350538      -1.20662876
H       -0.27230337      -0.66784966      -1.51482601
H       -2.03824400      -0.02624893       0.86677623
H       -1.17910377      -1.57102107       0.60611436
11
Frame=16 idx=000872 GeodesicLength=0.532394542125771 rxn_smarts="[N:1]#[C:2][C@@:3]1([H:7])[C:4]([H:8])([H:9])[C:5]([H:10])([H:11])[O:6]1>>[N+:1](#[C-:2])[C@@:3]1([H:7])[C:4]([H:8])([H:9])[C:5]([H:10])([H:11])[O:6]1"
N        2.20382143      -0.35294437      -0.60001044
C        2.51807071       0.04858379       0.42294377
C        0.68025224       0.49274488       0.13855034
C       -0.50464342       0.06867015      -0.75311794
C       -1.10500039      -0.48236724       0.54367811
O        0.01723475       0.00437551       1.30213210
H        0.74759369       1.58831122       0.19338382
H       -1.05007918       0.88918253      -1.21289183
H       -0.27510562      -0.67547054      -1.51025239
H       -2.03480047      -0.01292467       0.86988385
H       -1.19734373      -1.56816125       0.60570059
