16
Frame=0 idx=005020 GeodesicLength=0.0 rxn_smarts="[C:1]([O:2][C:3]([C@@:4]([C:5]([H:13])([H:14])[H:15])([O:6][H:16])[H:12])([H:10])[H:11])([H:7])([H:8])[H:9]>>[C:1]([O:2][C:3]([C:4]([C:5]([H:13])([H:14])[H:15])=[O:6])([H:11])[H:12])([H:7])([H:8])[H:9].[H:10][H:16]"
C        2.56886104      -0.31108582      -0.40040994
O        1.39623987      -0.32575931       0.41450597
C        0.30274064       0.14323111      -0.08375798
C       -0.89895191       0.27164031       0.77919900
C       -2.11179140       0.75561267      -0.02320337
O       -1.10086884      -0.75001016       1.58099330
H        2.49999784      -1.11163096      -1.13810489
H        2.67946117       0.65604335      -0.89468310
H        3.40745611      -0.49128806       0.26567890
H       -0.55050726      -1.65384745      -0.48477162
H        0.39912711       0.71393738      -1.01506904
H       -0.48482573       1.17874100       1.32097936
H       -2.90477091       0.99850019       0.68226313
H       -2.46573252      -0.05417155      -0.66340417
H       -1.90168018       1.63873324      -0.63491578
H       -0.83475507      -1.65864598       0.29470030
16
Frame=1 idx=005020 GeodesicLength=0.10302081737155126 rxn_smarts="[C:1]([O:2][C:3]([C@@:4]([C:5]([H:13])([H:14])[H:15])([O:6][H:16])[H:12])([H:10])[H:11])([H:7])([H:8])[H:9]>>[C:1]([O:2][C:3]([C:4]([C:5]([H:13])([H:14])[H:15])=[O:6])([H:11])[H:12])([H:7])([H:8])[H:9].[H:10][H:16]"
C        2.56576683      -0.31051065      -0.39268563
O        1.39336218      -0.32697216       0.41965232
C        0.29671554       0.14116917      -0.08840536
C       -0.90655761       0.27008837       0.77523627
C       -2.12103264       0.75890646      -0.01845052
O       -1.10565386      -0.75400475       1.57334030
H        2.49408728      -1.09910503      -1.14349729
H        2.68609278       0.66272265      -0.87330591
H        3.40276148      -0.50706705       0.27108536
H       -0.52292953      -1.65058375      -0.48680536
H        0.38573935       0.70227746      -1.02585144
H       -0.44383618       1.19088736       1.28429424
H       -2.91081536       0.99857672       0.69167883
H       -2.47713409      -0.04645090      -0.66319640
H       -1.91147128       1.64411434      -0.62690693
H       -0.82509488      -1.67404824       0.30381751
16
Frame=2 idx=005020 GeodesicLength=0.20591226844525723 rxn_smarts="[C:1]([O:2][C:3]([C@@:4]([C:5]([H:13])([H:14])[H:15])([O:6][H:16])[H:12])([H:10])[H:11])([H:7])([H:8])[H:9]>>[C:1]([O:2][C:3]([C:4]([C:5]([H:13])([H:14])[H:15])=[O:6])([H:11])[H:12])([H:7])([H:8])[H:9].[H:10][H:16]"
C        2.56275142      -0.30992669      -0.38500609
O        1.39060358      -0.32822802       0.42481479
C        0.29077820       0.13886701      -0.09317350
C       -0.91374804       0.26895463       0.77167515
C       -2.12995160       0.76236489      -0.01345444
O       -1.11058276      -0.75810763       1.56541300
H        2.48851980      -1.08653058      -1.14857983
H        2.69256143       0.66907309      -0.85207656
H        3.39811212      -0.52243957       0.27620402
H       -0.49583812      -1.64711856      -0.48889244
H        0.37235368       0.69026582      -1.03663954
H       -0.40455186       1.20224985       1.24668581
H       -2.91672873       0.99855672       0.70115761
H       -2.48826098      -0.03835508      -0.66290256
H       -1.92091242       1.64974212      -0.61850742
H       -0.81510571      -1.68936802       0.31328199
16
Frame=3 idx=005020 GeodesicLength=0.30877860872909957 rxn_smarts="[C:1]([O:2][C:3]([C@@:4]([C:5]([H:13])([H:14])[H:15])([O:6][H:16])[H:12])([H:10])[H:11])([H:7])([H:8])[H:9]>>[C:1]([O:2][C:3]([C:4]([C:5]([H:13])([H:14])[H:15])=[O:6])([H:11])[H:12])([H:7])([H:8])[H:9].[H:10][H:16]"
C        2.55980907      -0.30932202      -0.37735588
O        1.38794791      -0.32951476       0.42999617
C        0.28491718       0.13631526      -0.09808055
C       -0.92055723       0.26815919       0.76844599
C       -2.13856511       0.76599323      -0.00822751
O       -1.11566125      -0.76232778       1.55719839
H        2.48328890      -1.07390530      -1.15334612
H        2.69886901       0.67512239      -0.83097591
H        3.39350139      -0.53740295       0.28107292
H       -0.46921982      -1.64347861      -0.49112181
H        0.35895426       0.67788929      -1.04745056
H       -0.36687838       1.21291112       1.20821878
H       -2.92248668       0.99848359       0.71071827
H       -2.49915690      -0.02986881      -0.66252108
H       -1.93000291       1.65561240      -0.60972731
H       -0.80475944      -1.70466625       0.32315621
16
Frame=4 idx=005020 GeodesicLength=0.41171311028372015 rxn_smarts="[C:1]([O:2][C:3]([C@@:4]([C:5]([H:13])([H:14])[H:15])([O:6][H:16])[H:12])([H:10])[H:11])([H:7])([H:8])[H:9]>>[C:1]([O:2][C:3]([C:4]([C:5]([H:13])([H:14])[H:15])=[O:6])([H:11])[H:12])([H:7])([H:8])[H:9].[H:10][H:16]"
C        2.55693068      -0.30869068      -0.36972221
O        1.38538129      -0.33081115       0.43520157
C        0.27912195       0.13351159      -0.10314012
C       -0.92701641       0.26763338       0.76549086
C       -2.14688680       0.76979769      -0.00278017
O       -1.12090035      -0.76667521       1.54868436
H        2.47838555      -1.06125550      -1.15777129
H        2.70500677       0.68088150      -0.81002024
H        3.38892674      -0.55193458       0.28573268
H       -0.44305170      -1.63967051      -0.49360455
H        0.34552922       0.66514630      -1.05829347
H       -0.33074143       1.22292265       1.16896059
H       -2.92807069       0.99839271       0.72037613
H       -2.50985784      -0.02097538      -0.66205464
H       -1.93873667       1.66172766      -0.60057173
H       -0.79402030      -1.72000048       0.33351224
16
Frame=5 idx=005020 GeodesicLength=0.5147700855704227 rxn_smarts="[C:1]([O:2][C:3]([C@@:4]([C:5]([H:13])([H:14])[H:15])([O:6][H:16])[H:12])([H:10])[H:11])([H:7])([H:8])[H:9]>>[C:1]([O:2][C:3]([C:4]([C:5]([H:13])([H:14])[H:15])=[O:6])([H:11])[H:12])([H:7])([H:8])[H:9].[H:10][H:16]"
C        2.55410477      -0.30802221      -0.36209080
O        1.38288700      -0.33209810       0.44043726
C        0.27337988       0.13045486      -0.10836021
C       -0.93316175       0.26730817       0.76275598
C       -2.15492906       0.77378642       0.00287522
O       -1.12631628      -0.77116459       1.53985759
H        2.47379521      -1.04858728      -1.16184311
H        2.71096529       0.68636840      -0.78920410
H        3.38437896      -0.56602436       0.29020995
H       -0.41730665      -1.63570703      -0.49642425
H        0.33206271       0.65202813      -1.06917696
H       -0.29604904       1.23231756       1.12894813
H       -2.93346460       0.99831850       0.73014178
H       -2.52039740      -0.01165326      -0.66151200
H       -1.94710261       1.66809462      -0.59104333
H       -0.78284642      -1.73541982       0.34442884
16
Frame=6 idx=005020 GeodesicLength=0.6179217948049422 rxn_smarts="[C:1]([O:2][C:3]([C@@:4]([C:5]([H:13])([H:14])[H:15])([O:6][H:16])[H:12])([H:10])[H:11])([H:7])([H:8])[H:9]>>[C:1]([O:2][C:3]([C:4]([C:5]([H:13])([H:14])[H:15])=[O:6])([H:11])[H:12])([H:7])([H:8])[H:9].[H:10][H:16]"
C        2.55131904      -0.30730780      -0.35445098
O        1.38044751      -0.33335952       0.44570414
C        0.26767798       0.12714454      -0.11375037
C       -0.93902469       0.26712648       0.76019399
C       -2.16270224       0.77797070       0.00872808
O       -1.13192790      -0.77581426       1.53070010
H        2.46950426      -1.03590861      -1.16555465
H        2.71673702       0.69160239      -0.76853093
H        3.37985195      -0.57965838       0.29453991
H       -0.39195461      -1.63160424      -0.49964372
H        0.31854000       0.63852836      -1.08010921
H       -0.26272212       1.24110987       1.08821268
H       -2.93865582       0.99829083       0.74002350
H       -2.53080431      -0.00187640      -0.66090264
H       -1.95508813       1.67472508      -0.58114011
H       -0.77119797      -1.75096902       0.35598022
16
Frame=7 idx=005020 GeodesicLength=0.7211339458738064 rxn_smarts="[C:1]([O:2][C:3]([C@@:4]([C:5]([H:13])([H:14])[H:15])([O:6][H:16])[H:12])([H:10])[H:11])([H:7])([H:8])[H:9]>>[C:1]([O:2][C:3]([C:4]([C:5]([H:13])([H:14])[H:15])=[O:6])([H:11])[H:12])([H:7])([H:8])[H:9].[H:10][H:16]"
C        2.54855830      -0.30653677      -0.34679361
O        1.37804357      -0.33458661       0.45100557
C        0.26200127       0.12357796      -0.11931393
C       -0.94463708       0.26703708       0.75776369
C       -2.17021340       0.78236274       0.01476485
O       -1.13775660      -0.78064110       1.52119366
H        2.46549590      -1.02320342      -1.16890750
H        2.72230646       0.69660279      -0.74798118
H        3.37533392      -0.59283447       0.29873489
H       -0.36696955      -1.62738133      -0.50331939
H        0.30494500       0.62463772      -1.09109316
H       -0.23067877       1.24929363       1.04676806
H       -2.94363385       0.99833869       0.75001948
H       -2.54109821       0.00838209      -0.66024079
H       -1.96267556       1.68163177      -0.57086163
H       -0.75902141      -1.76668077       0.36826101
16
Frame=8 idx=005020 GeodesicLength=0.8244096211185896 rxn_smarts="[C:1]([O:2][C:3]([C@@:4]([C:5]([H:13])([H:14])[H:15])([O:6][H:16])[H:12])([H:10])[H:11])([H:7])([H:8])[H:9]>>[C:1]([O:2][C:3]([C:4]([C:5]([H:13])([H:14])[H:15])=[O:6])([H:11])[H:12])([H:7])([H:8])[H:9].[H:10][H:16]"
C        2.54580871      -0.30569746      -0.33911026
O        1.37565451      -0.33576939       0.45633819
C        0.25633388       0.11975690      -0.12505638
C       -0.95003349       0.26698913       0.75542577
C       -2.17747018       0.78697531       0.02097281
O       -1.14382600      -0.78566389       1.51132049
H        2.46175362      -1.01046156      -1.17190796
H        2.72766679       0.70139658      -0.72754344
H        3.37081252      -0.60555495       0.30282006
H       -0.34231746      -1.62304357      -0.50750885
H        0.29126104       0.61034927      -1.10213423
H       -0.19983633       1.25684788       1.00461986
H       -2.94839134       0.99848612       0.76012875
H       -2.55130145       0.01915278      -0.65954081
H       -1.96984739       1.68882956      -0.56020331
H       -0.74626743      -1.78259272       0.38137930
16
Frame=9 idx=005020 GeodesicLength=0.9275585555046082 rxn_smarts="[C:1]([O:2][C:3]([C@@:4]([C:5]([H:13])([H:14])[H:15])([O:6][H:16])[H:12])([H:10])[H:11])([H:7])([H:8])[H:9]>>[C:1]([O:2][C:3]([C:4]([C:5]([H:13])([H:14])[H:15])=[O:6])([H:11])[H:12])([H:7])([H:8])[H:9].[H:10][H:16]"
C        2.54304763      -0.30478453      -0.33141954
O        1.37327457      -0.33687704       0.46172347
C        0.25066541       0.11571168      -0.13092986
C       -0.95525997       0.26695934       0.75316209
C       -2.18448807       0.79181591       0.02731873
O       -1.15020289      -0.79093218       1.50103204
H        2.45820508      -0.99769662      -1.17459477
H        2.73281916       0.70602290      -0.70726593
H        3.36628124      -0.61783181       0.30681078
H       -0.31797044      -1.61861366      -0.51217572
H        0.27747439       0.59567211      -1.11319371
H       -0.17007293       1.26365591       0.96180971
H       -2.95296748       0.99871733       0.77031200
H       -2.56140120       0.03046804      -0.65887081
H       -1.97657489       1.69634743      -0.54915940
H       -0.73282960      -1.79863482       0.39544092
16
Frame=10 idx=005020 GeodesicLength=1.030774417172356 rxn_smarts="[C:1]([O:2][C:3]([C@@:4]([C:5]([H:13])([H:14])[H:15])([O:6][H:16])[H:12])([H:10])[H:11])([H:7])([H:8])[H:9]>>[C:1]([O:2][C:3]([C:4]([C:5]([H:13])([H:14])[H:15])=[O:6])([H:11])[H:12])([H:7])([H:8])[H:9].[H:10][H:16]"
C        2.54026407      -0.30377789      -0.32369528
O        1.37086680      -0.33792302       0.46713440
C        0.24496845       0.11139493      -0.13699492
C       -0.96034301       0.26685761       0.75091406
C       -2.19125872       0.79691048       0.03380908
O       -1.15688468      -0.79646120       1.49030686
H        2.45488992      -0.98487636      -1.17694553
H        2.73772492       0.71050056      -0.68708977
H        3.36172118      -0.62963049       0.31073441
H       -0.29388775      -1.61411575      -0.51744901
H        0.26356105       0.58056696      -1.12431993
H       -0.14135265       1.26978896       0.91832520
H       -2.95731098       0.99908963       0.78059660
H       -2.57144209       0.04238888      -0.65821411
H       -1.98282442       1.70420543      -0.53769990
H       -0.71869209      -1.81491875       0.41058784
16
Frame=11 idx=005020 GeodesicLength=1.1340776797143763 rxn_smarts="[C:1]([O:2][C:3]([C@@:4]([C:5]([H:13])([H:14])[H:15])([O:6][H:16])[H:12])([H:10])[H:11])([H:7])([H:8])[H:9]>>[C:1]([O:2][C:3]([C:4]([C:5]([H:13])([H:14])[H:15])=[O:6])([H:11])[H:12])([H:7])([H:8])[H:9].[H:10][H:16]"
C        2.53744153      -0.30266189      -0.31593425
O        1.36840813      -0.33890184       0.47256536
C        0.23922305       0.10679719      -0.14325792
C       -0.96532342       0.26662257       0.74864552
C       -2.19778695       0.80227543       0.04043236
O       -1.16391180      -0.80228684       1.47910682
H        2.45179370      -0.97198441      -1.17897039
H        2.74236449       0.71486014      -0.66700366
H        3.35711827      -0.64094125       0.31460912
H       -0.27002567      -1.60956620      -0.52337805
H        0.24950089       0.56501584      -1.13551723
H       -0.11358291       1.27521603       0.87416605
H       -2.96141871       0.99962371       0.79097655
H       -2.58144191       0.05496733      -0.65759675
H       -1.98856252       1.71242591      -0.52580100
H       -0.70379617      -1.83146171       0.42695747
16
Frame=12 idx=005020 GeodesicLength=1.2374840156590456 rxn_smarts="[C:1]([O:2][C:3]([C@@:4]([C:5]([H:13])([H:14])[H:15])([O:6][H:16])[H:12])([H:10])[H:11])([H:7])([H:8])[H:9]>>[C:1]([O:2][C:3]([C:4]([C:5]([H:13])([H:14])[H:15])=[O:6])([H:11])[H:12])([H:7])([H:8])[H:9].[H:10][H:16]"
C        2.53456069      -0.30142345      -0.30813508
O        1.36587378      -0.33981499       0.47800799
C        0.23340840       0.10191056      -0.14972075
C       -0.97024161       0.26619805       0.74632470
C       -2.20407470       0.80792665       0.04717469
O       -1.17132787      -0.80844588       1.46738660
H        2.44889717      -0.95898800      -1.18069398
H        2.74671752       0.71913547      -0.64698133
H        3.35245472      -0.65176990       0.31844147
H       -0.24634272      -1.60497826      -0.53001324
H        0.23527461       0.54900596      -1.14678591
H       -0.08668119       1.27988960       0.82932054
H       -2.96529201       1.00033222       0.80143862
H       -2.59140859       0.06825735      -0.65704977
H       -1.99374956       1.72103244      -0.51343674
H       -0.68806864      -1.84826782       0.44472220
16
Frame=13 idx=005020 GeodesicLength=1.3409279594881574 rxn_smarts="[C:1]([O:2][C:3]([C@@:4]([C:5]([H:13])([H:14])[H:15])([O:6][H:16])[H:12])([H:10])[H:11])([H:7])([H:8])[H:9]>>[C:1]([O:2][C:3]([C:4]([C:5]([H:13])([H:14])[H:15])=[O:6])([H:11])[H:12])([H:7])([H:8])[H:9].[H:10][H:16]"
C        2.53160386      -0.30004741      -0.30029946
O        1.36323933      -0.34065602       0.48345090
C        0.22750264       0.09672497      -0.15639045
C       -0.97513720       0.26552700       0.74392143
C       -2.21012170       0.81388319       0.05402647
O       -1.17918202      -0.81498863       1.45508510
H        2.44618360      -0.94586400      -1.18213523
H        2.75076640       0.72336323      -0.62701235
H        3.34771475      -0.66211172       0.32224591
H       -0.22279280      -1.60037369      -0.53737388
H        0.22086067       0.53251702      -1.15812972
H       -0.06057102       1.28376141       0.78378414
H       -2.96893158       1.00122657       0.81197440
H       -2.60134921       0.08232299      -0.65660469
H       -1.99834162       1.73005137      -0.50057294
H       -0.67144410      -1.86533630       0.46403037
16
Frame=14 idx=005020 GeodesicLength=1.4443882498348715 rxn_smarts="[C:1]([O:2][C:3]([C@@:4]([C:5]([H:13])([H:14])[H:15])([O:6][H:16])[H:12])([H:10])[H:11])([H:7])([H:8])[H:9]>>[C:1]([O:2][C:3]([C:4]([C:5]([H:13])([H:14])[H:15])=[O:6])([H:11])[H:12])([H:7])([H:8])[H:9].[H:10][H:16]"
C        2.52855062      -0.29851843      -0.29243362
O        1.36048072      -0.34142527       0.48888522
C        0.22148327       0.09122818      -0.16327063
C       -0.98005270       0.26455207       0.74140653
C       -2.21592491       0.82016313       0.06097436
O       -1.18753144      -0.82197714       1.44212833
H        2.44363196      -0.93257123      -1.18332531
H        2.75448664       0.72757677      -0.60707068
H        3.34287952      -0.67197588       0.32601828
H       -0.19933178      -1.59577025      -0.54549682
H        0.20623883       0.51553444      -1.16954910
H       -0.03518617       1.28676599       0.73754575
H       -2.97234222       1.00230835       0.82256466
H       -2.61126105       0.09723611      -0.65630404
H       -2.00228477       1.73951298      -0.48716791
H       -0.65383652      -1.88263981       0.48509498
16
Frame=15 idx=005020 GeodesicLength=1.5478317977917884 rxn_smarts="[C:1]([O:2][C:3]([C@@:4]([C:5]([H:13])([H:14])[H:15])([O:6][H:16])[H:12])([H:10])[H:11])([H:7])([H:8])[H:9]>>[C:1]([O:2][C:3]([C:4]([C:5]([H:13])([H:14])[H:15])=[O:6])([H:11])[H:12])([H:7])([H:8])[H:9].[H:10][H:16]"
C        2.52538323      -0.29682255      -0.28454279
O        1.35757389      -0.34212129       0.49429628
C        0.21532887       0.08541178      -0.17036574
C       -0.98503087       0.26321451       0.73875248
C       -2.22148193       0.82678236       0.06800902
O       -1.19643822      -0.82948490       1.42842510
H        2.44122116      -0.91907110      -1.18429815
H        2.75786417       0.73180999      -0.58713533
H        3.33792989      -0.68137479       0.32975848
H       -0.17591403      -1.59117613      -0.55441451
H        0.19139041       0.49804476      -1.18104389
H       -0.01046659       1.28883532       0.69058730
H       -2.97553261       1.00357096       0.83319426
H       -2.62113948       0.11307256      -0.65618993
H       -2.00552334       1.74944442      -0.47317270
H       -0.63516456      -1.90013591       0.50814010
16
Frame=16 idx=005020 GeodesicLength=1.651181457120197 rxn_smarts="[C:1]([O:2][C:3]([C@@:4]([C:5]([H:13])([H:14])[H:15])([O:6][H:16])[H:12])([H:10])[H:11])([H:7])([H:8])[H:9]>>[C:1]([O:2][C:3]([C:4]([C:5]([H:13])([H:14])[H:15])=[O:6])([H:11])[H:12])([H:7])([H:8])[H:9].[H:10][H:16]"
C        2.52208256      -0.29494573      -0.27663716
O        1.35449691      -0.34274110       0.49967094
C        0.20901795       0.07926565      -0.17768145
C       -0.99011334       0.26145783       0.73593448
C       -2.22678561       0.83375896       0.07512221
O       -1.20597112      -0.83760189       1.41385608
H        2.43892703      -0.90531740      -1.18509270
H        2.76088072       0.73609668      -0.56718071
H        3.33284644      -0.69032709       0.33345700
H       -0.15248966      -1.58661056      -0.56414344
H        0.17629543       0.48003275      -1.19261804
H        0.01363097       1.28988720       0.64289117
H       -2.97851364       1.00499838       0.84384343
H       -2.63096988       0.12992062      -0.65630913
H       -2.00799422       1.75987629      -0.45852566
H       -0.61534056      -1.91775060       0.53341299
