16
Frame=0 idx=006869 GeodesicLength=0.0 rxn_smarts="[C:1]([N:2]1[C:3]([H:11])([H:12])[C@:4]1([C:5](=[O:6])[C:7]([H:14])([H:15])[H:16])[H:13])([H:8])([H:9])[H:10]>>[C-:1]([N+:2]1=[C:3]([H:12])[C@:4]1([C:5](=[O:6])[C:7]([H:14])([H:15])[H:16])[H:13])([H:9])[H:10].[H:8][H:11]"
C        0.97321166       0.16598394      -1.82696802
N        0.60927186       0.14645142      -0.55628450
C        1.17490223      -0.31768589       0.56175435
C       -0.18915483      -0.80368804       0.19688270
C       -1.46150334      -0.31366690       0.82372754
O       -2.33224159      -1.10829627       1.07836558
C       -1.57796967       1.15055391       1.16174688
H        2.09922398      -1.29929651      -1.29804405
H        1.81740127       0.78894715      -2.09362189
H        0.21451547      -0.03761077      -2.57191510
H        2.13141784      -1.29361270      -0.44000783
H        1.58923800       0.20324392       1.40958491
H       -0.25534367      -1.81716368      -0.20277706
H       -2.58856792       1.35626993       1.50543700
H       -0.86864337       1.40543162       1.95213365
H       -1.33575796       1.77413882       0.29998581
16
Frame=1 idx=006869 GeodesicLength=0.06553560748381582 rxn_smarts="[C:1]([N:2]1[C:3]([H:11])([H:12])[C@:4]1([C:5](=[O:6])[C:7]([H:14])([H:15])[H:16])[H:13])([H:8])([H:9])[H:10]>>[C-:1]([N+:2]1=[C:3]([H:12])[C@:4]1([C:5](=[O:6])[C:7]([H:14])([H:15])[H:16])[H:13])([H:9])[H:10].[H:8][H:11]"
C        0.97643729       0.15550652      -1.82839228
N        0.60759404       0.14570895      -0.55565498
C        1.17286339      -0.32803162       0.56222096
C       -0.19340296      -0.80472859       0.19429571
C       -1.46395921      -0.31003241       0.82120055
O       -2.34001895      -1.10067970       1.07016893
C       -1.57301833       1.15318544       1.16584787
H        2.11883642      -1.28101291      -1.30762683
H        1.79014488       0.81569237      -2.10024975
H        0.22312978      -0.07981464      -2.57007017
H        2.14191711      -1.28935984      -0.43188506
H        1.57715461       0.19772636       1.41221928
H       -0.26456731      -1.81706776      -0.20679246
H       -2.58451904       1.36431975       1.50366123
H       -0.86728333       1.39910350       1.96224299
H       -1.32130839       1.77948458       0.30881399
16
Frame=2 idx=006869 GeodesicLength=0.13086257290220216 rxn_smarts="[C:1]([N:2]1[C:3]([H:11])([H:12])[C@:4]1([C:5](=[O:6])[C:7]([H:14])([H:15])[H:16])[H:13])([H:8])([H:9])[H:10]>>[C-:1]([N+:2]1=[C:3]([H:12])[C@:4]1([C:5](=[O:6])[C:7]([H:14])([H:15])[H:16])[H:13])([H:9])[H:10].[H:8][H:11]"
C        0.97990734       0.14524842      -1.82966623
N        0.60601034       0.14491619      -0.55498684
C        1.17074940      -0.33850592       0.56272090
C       -0.19767724      -0.80577602       0.19164270
C       -1.46642737      -0.30633975       0.81854761
O       -2.34784070      -1.09289041       1.06179169
C       -1.56799462       1.15579275       1.16990953
H        2.13873103      -1.26207605      -1.31711597
H        1.76101048       0.84128819      -2.10769968
H        0.23269275      -0.12144094      -2.56751369
H        2.15257947      -1.28496205      -0.42333723
H        1.56510514       0.19181847       1.41485880
H       -0.27388984      -1.81690989      -0.21096377
H       -2.58030886       1.37247329       1.50183793
H       -0.86595367       1.39265115       1.97227177
H       -1.30669365       1.78471256       0.31770246
16
Frame=3 idx=006869 GeodesicLength=0.1961105813684715 rxn_smarts="[C:1]([N:2]1[C:3]([H:11])([H:12])[C@:4]1([C:5](=[O:6])[C:7]([H:14])([H:15])[H:16])[H:13])([H:8])([H:9])[H:10]>>[C-:1]([N+:2]1=[C:3]([H:12])[C@:4]1([C:5](=[O:6])[C:7]([H:14])([H:15])[H:16])[H:13])([H:9])[H:10].[H:8][H:11]"
C        0.98361281       0.13522903      -1.83079297
N        0.60452654       0.14408158      -0.55427604
C        1.16855983      -0.34911061       0.56325344
C       -0.20197607      -0.80682378       0.18891822
C       -1.46890447      -0.30258611       0.81576866
O       -2.35570234      -1.08492405       1.05322642
C       -1.56289708       1.15837491       1.17393650
H        2.15888330      -1.24244680      -1.32656779
H        1.73004705       0.86564351      -2.11593110
H        0.24318179      -0.16248333      -2.56425734
H        2.16339502      -1.28042403      -0.41433497
H        1.55308585       0.18552677       1.41750442
H       -0.28330908      -1.81667789      -0.21530428
H       -2.57593304       1.38072717       1.49997719
H       -0.86465389       1.38607313       1.98222187
H       -1.29191621       1.78982049       0.32665776
16
Frame=4 idx=006869 GeodesicLength=0.2613197945885337 rxn_smarts="[C:1]([N:2]1[C:3]([H:11])([H:12])[C@:4]1([C:5](=[O:6])[C:7]([H:14])([H:15])[H:16])[H:13])([H:8])([H:9])[H:10]>>[C-:1]([N+:2]1=[C:3]([H:12])[C@:4]1([C:5](=[O:6])[C:7]([H:14])([H:15])[H:16])[H:13])([H:9])[H:10].[H:8][H:11]"
C        0.98754322       0.12547022      -1.83177789
N        0.60314389       0.14321647      -0.55352208
C        1.16629050      -0.35984589       0.56381348
C       -0.20630199      -0.80786352       0.18611315
C       -1.47139021      -0.29876537       0.81286012
O       -2.36360887      -1.07676996       1.04445211
C       -1.55772168       1.16093090       1.17794341
H        2.17927963      -1.22206899      -1.33601863
H        1.69728290       0.88866137      -2.12492430
H        0.25460380      -0.20297150      -2.56031985
H        2.17435116      -1.27574197      -0.40485386
H        1.54109108       0.17885676       1.42015495
H       -0.29282741      -1.81635910      -0.21983103
H       -2.57138404       1.38908133       1.49809408
H       -0.86338510       1.37935609       1.99211131
H       -1.27696689       1.79481316       0.33570501
16
Frame=5 idx=006869 GeodesicLength=0.32658194654208483 rxn_smarts="[C:1]([N:2]1[C:3]([H:11])([H:12])[C@:4]1([C:5](=[O:6])[C:7]([H:14])([H:15])[H:16])[H:13])([H:8])([H:9])[H:10]>>[C-:1]([N+:2]1=[C:3]([H:12])[C@:4]1([C:5](=[O:6])[C:7]([H:14])([H:15])[H:16])[H:13])([H:9])[H:10].[H:8][H:11]"
C        0.99169267       0.11599628      -1.83261967
N        0.60187008       0.14233011      -0.55271369
C        1.16394148      -0.37071873       0.56440252
C       -0.21065192      -0.80888800       0.18322364
C       -1.47387891      -0.29487753       0.80982836
O       -2.37154155      -1.06843222       1.03548636
C       -1.55247231       1.16345956       1.18192648
H        2.19989263      -1.20090221      -1.34552898
H        1.66276958       0.91021753      -2.13464679
H        0.26694608      -0.24283962      -2.55570130
H        2.18543025      -1.27093574      -0.39486313
H        1.52911909       0.17180502       1.42281624
H       -0.30244349      -1.81593589      -0.22456238
H       -2.56666183       1.39752704       1.49620181
H       -0.86214168       1.37251438       2.00191996
H       -1.26187015       1.79968002       0.34483054
16
Frame=6 idx=006869 GeodesicLength=0.39192360869048143 rxn_smarts="[C:1]([N:2]1[C:3]([H:11])([H:12])[C@:4]1([C:5](=[O:6])[C:7]([H:14])([H:15])[H:16])[H:13])([H:8])([H:9])[H:10]>>[C-:1]([N+:2]1=[C:3]([H:12])[C@:4]1([C:5](=[O:6])[C:7]([H:14])([H:15])[H:16])[H:13])([H:9])[H:10].[H:8][H:11]"
C        0.99605400       0.10683112      -1.83332350
N        0.60070836       0.14143933      -0.55185028
C        1.16150957      -0.38172472       0.56501727
C       -0.21502892      -0.80988669       0.18023943
C       -1.47637227      -0.29091299       0.80666410
O       -2.37951449      -1.05989415       1.02629028
C       -1.54714293       1.16595960       1.18590852
H        2.22072150      -1.17886768      -1.35513242
H        1.62651448       0.93019322      -2.14512183
H        0.28022575      -0.28213343      -2.55041544
H        2.19661552      -1.26600666      -0.38432787
H        1.51716289       0.16437694       1.42549364
H       -0.31216031      -1.81539411      -0.22951925
H       -2.56175965       1.40606706       1.49431292
H       -0.86093294       1.36552014       2.01168626
H       -1.24660056       1.80443303       0.35407817
16
Frame=7 idx=006869 GeodesicLength=0.45741456652694945 rxn_smarts="[C:1]([N:2]1[C:3]([H:11])([H:12])[C@:4]1([C:5](=[O:6])[C:7]([H:14])([H:15])[H:16])[H:13])([H:8])([H:9])[H:10]>>[C-:1]([N+:2]1=[C:3]([H:12])[C@:4]1([C:5](=[O:6])[C:7]([H:14])([H:15])[H:16])[H:13])([H:9])[H:10].[H:8][H:11]"
C        1.00062052       0.09801234      -1.83388675
N        0.59966542       0.14055578      -0.55091811
C        1.15899171      -0.39287310       0.56565737
C       -0.21943175      -0.81084960       0.17715434
C       -1.47886535      -0.28686875       0.80337349
O       -2.38750976      -1.05115806       1.01688584
C       -1.54173700       1.16843095       1.18988950
H        2.24175203      -1.15589187      -1.36489048
H        1.58855555       0.94844796      -2.15633139
H        0.29445913      -0.32080753      -2.54446250
H        2.20787313      -1.26099262      -0.37321296
H        1.50521719       0.15655935       1.42819281
H       -0.32198029      -1.81471028      -0.23472802
H       -2.55667483       1.41469475       1.49244701
H       -0.85975136       1.35838660       2.02139142
H       -1.23118434       1.80906410       0.36343843
16
Frame=8 idx=006869 GeodesicLength=0.5230321711878715 rxn_smarts="[C:1]([N:2]1[C:3]([H:11])([H:12])[C@:4]1([C:5](=[O:6])[C:7]([H:14])([H:15])[H:16])[H:13])([H:8])([H:9])[H:10]>>[C-:1]([N+:2]1=[C:3]([H:12])[C@:4]1([C:5](=[O:6])[C:7]([H:14])([H:15])[H:16])[H:13])([H:9])[H:10].[H:8][H:11]"
C        1.00538767       0.08957051      -1.83431009
N        0.59874492       0.13969108      -0.54990783
C        1.15638256      -0.40417550       0.56631605
C       -0.22386358      -0.81176694       0.17395917
C       -1.48135704      -0.28273687       0.79995859
O       -2.39552924      -1.04222082       1.00727515
C       -1.53625469       1.17087527       1.19388086
H        2.26299425      -1.13185302      -1.37482665
H        1.54891025       0.96483731      -2.16829946
H        0.30967883      -0.35885167      -2.53784173
H        2.21916189      -1.25594175      -0.36149024
H        1.49327959       0.14833477       1.43091144
H       -0.33190957      -1.81386127      -0.24021624
H       -2.55140318       1.42341164       1.49062859
H       -0.85859327       1.35111275       2.03103704
H       -1.21562940       1.81357452       0.37292535
16
Frame=9 idx=006869 GeodesicLength=0.5887582451269808 rxn_smarts="[C:1]([N:2]1[C:3]([H:11])([H:12])[C@:4]1([C:5](=[O:6])[C:7]([H:14])([H:15])[H:16])[H:13])([H:8])([H:9])[H:10]>>[C-:1]([N+:2]1=[C:3]([H:12])[C@:4]1([C:5](=[O:6])[C:7]([H:14])([H:15])[H:16])[H:13])([H:9])[H:10].[H:8][H:11]"
C        1.01029222       0.08146702      -1.83465400
N        0.59794314       0.13885686      -0.54886788
C        1.15369425      -0.41557260       0.56697019
C       -0.22831530      -0.81262899       0.17064611
C       -1.48384758      -0.27850972       0.79638416
O       -2.40360015      -1.03302611       0.99730320
C       -1.53066968       1.17327909       1.19792183
H        2.28441728      -1.10673281      -1.38498751
H        1.50765296       0.97932459      -2.18092052
H        0.32577672      -0.39641301      -2.53055975
H        2.23048684      -1.25081129      -0.34911801
H        1.48134649       0.13981059       1.43363298
H       -0.34192700      -1.81286085      -0.24596217
H       -2.54593356       1.43221844       1.48882026
H       -0.85750080       1.34360554       2.04074551
H       -1.19981581       1.81799325       0.38264561
16
Frame=10 idx=006869 GeodesicLength=0.654619254578562 rxn_smarts="[C:1]([N:2]1[C:3]([H:11])([H:12])[C@:4]1([C:5](=[O:6])[C:7]([H:14])([H:15])[H:16])[H:13])([H:8])([H:9])[H:10]>>[C-:1]([N+:2]1=[C:3]([H:12])[C@:4]1([C:5](=[O:6])[C:7]([H:14])([H:15])[H:16])[H:13])([H:9])[H:10].[H:8][H:11]"
C        1.01534833       0.07376717      -1.83488413
N        0.59726142       0.13805186      -0.54775151
C        1.15090458      -0.42713949       0.56762050
C       -0.23280754      -0.81343417       0.16720655
C       -1.48633473      -0.27418137       0.79269170
O       -2.41169010      -1.02360588       0.98713562
C       -1.52499895       1.17566097       1.20198523
H        2.30608214      -1.08027804      -1.39541722
H        1.46478894       0.99174678      -2.19419925
H        0.34289554      -0.43339769      -2.52261501
H        2.24174709      -1.24575768      -0.33609239
H        1.46941986       0.13086388       1.43636067
H       -0.35207744      -1.81166769      -0.25202745
H       -2.54025776       1.44112342       1.48708946
H       -0.85641677       1.33595851       2.05039217
H       -1.18386463       1.82228941       0.39250505
16
Frame=11 idx=006869 GeodesicLength=0.7205686834573403 rxn_smarts="[C:1]([N:2]1[C:3]([H:11])([H:12])[C@:4]1([C:5](=[O:6])[C:7]([H:14])([H:15])[H:16])[H:13])([H:8])([H:9])[H:10]>>[C-:1]([N+:2]1=[C:3]([H:12])[C@:4]1([C:5](=[O:6])[C:7]([H:14])([H:15])[H:16])[H:13])([H:9])[H:10].[H:8][H:11]"
C        1.02053120       0.06649221      -1.83501103
N        0.59669680       0.13728155      -0.54655995
C        1.14800601      -0.43888589       0.56825341
C       -0.23734858      -0.81417503       0.16363042
C       -1.48881705      -0.26974516       0.78888729
O       -2.41978567      -1.01394765       0.97679565
C       -1.51923754       1.17802218       1.20607235
H        2.32800943      -1.05233714      -1.40615090
H        1.42036884       1.00197626      -2.20807117
H        0.36105131      -0.46981615      -2.51400655
H        2.25288662      -1.24084411      -0.32240633
H        1.45749408       0.12147928       1.43909035
H       -0.36237806      -1.81026295      -0.25843734
H       -2.53436550       1.45012606       1.48545210
H       -0.85532523       1.32817855       2.05996600
H       -1.16778665       1.82645797       0.40249571
16
Frame=12 idx=006869 GeodesicLength=0.7865469146989994 rxn_smarts="[C:1]([N:2]1[C:3]([H:11])([H:12])[C@:4]1([C:5](=[O:6])[C:7]([H:14])([H:15])[H:16])[H:13])([H:8])([H:9])[H:10]>>[C-:1]([N+:2]1=[C:3]([H:12])[C@:4]1([C:5](=[O:6])[C:7]([H:14])([H:15])[H:16])[H:13])([H:9])[H:10].[H:8][H:11]"
C        1.02581241       0.05965007      -1.83505279
N        0.59624145       0.13655423      -0.54529769
C        1.14498842      -0.45082151       0.56884756
C       -0.24195045      -0.81484205       0.15990519
C       -1.49129709      -0.26518836       0.78497536
O       -2.42789068      -1.00403504       0.96629416
C       -1.51338110       1.18036639       1.21019779
H        2.35022331      -1.02268577      -1.41719549
H        1.37444114       1.00985838      -2.22251638
H        0.38030196      -0.50570531      -2.50473180
H        2.26383739      -1.23616161      -0.30805665
H        1.44556899       0.11164309       1.44180409
H       -0.37284943      -1.80862568      -0.26521866
H       -2.52824695       1.45923253       1.48393898
H       -0.85421613       1.32025969       2.06947079
H       -1.15158325       1.83050095       0.41263554
16
Frame=13 idx=006869 GeodesicLength=0.852556792642103 rxn_smarts="[C:1]([N:2]1[C:3]([H:11])([H:12])[C@:4]1([C:5](=[O:6])[C:7]([H:14])([H:15])[H:16])[H:13])([H:8])([H:9])[H:10]>>[C-:1]([N+:2]1=[C:3]([H:12])[C@:4]1([C:5](=[O:6])[C:7]([H:14])([H:15])[H:16])[H:13])([H:9])[H:10].[H:8][H:11]"
C        1.03114234       0.05321298      -1.83505420
N        0.59588611       0.13587993      -0.54399637
C        1.14184624      -0.46291106       0.56938152
C       -0.24661435      -0.81542483       0.15601850
C       -1.49377677      -0.26050482       0.78093497
O       -2.43602277      -0.99383520       0.95554859
C       -1.50741034       1.18268723       1.21439558
H        2.37273420      -0.99117414      -1.42858967
H        1.32707615       1.01527446      -2.23750271
H        0.40062768      -0.54115060      -2.49478268
H        2.27454083      -1.23174839      -0.29300554
H        1.43363191       0.10141640       1.44449002
H       -0.38348623      -1.80675398      -0.27237273
H       -2.52188448       1.46844557       1.48254724
H       -0.85310823       1.31214764       2.07898966
H       -1.13518230       1.83443881       0.42299783
16
Frame=14 idx=006869 GeodesicLength=0.9185032947984215 rxn_smarts="[C:1]([N:2]1[C:3]([H:11])([H:12])[C@:4]1([C:5](=[O:6])[C:7]([H:14])([H:15])[H:16])[H:13])([H:8])([H:9])[H:10]>>[C-:1]([N+:2]1=[C:3]([H:12])[C@:4]1([C:5](=[O:6])[C:7]([H:14])([H:15])[H:16])[H:13])([H:9])[H:10].[H:8][H:11]"
C        1.03651458       0.04721250      -1.83500313
N        0.59562372       0.13525799      -0.54263356
C        1.13856049      -0.47521353       0.56983585
C       -0.25136592      -0.81591701       0.15196026
C       -1.49626014      -0.25567705       0.77679674
O       -2.44417282      -0.98334123       0.94465866
C       -1.50132809       1.18499870       1.21865850
H        2.39556508      -0.95745421      -1.44031606
H        1.27828268       1.01800905      -2.25301658
H        0.42218643      -0.57613385      -2.48414196
H        2.28491602      -1.22776181      -0.27729495
H        1.42168963       0.09070323       1.44712970
H       -0.39434221      -1.80460658      -0.27995081
H       -2.51526788       1.47777995       1.48133164
H       -0.85195374       1.30388771       2.08844964
H       -1.11864781       1.83825612       0.43353607
16
Frame=15 idx=006869 GeodesicLength=0.9843304838893435 rxn_smarts="[C:1]([N:2]1[C:3]([H:11])([H:12])[C@:4]1([C:5](=[O:6])[C:7]([H:14])([H:15])[H:16])[H:13])([H:8])([H:9])[H:10]>>[C-:1]([N+:2]1=[C:3]([H:12])[C@:4]1([C:5](=[O:6])[C:7]([H:14])([H:15])[H:16])[H:13])([H:9])[H:10].[H:8][H:11]"
C        1.04188610       0.04163743      -1.83493200
N        0.59543759       0.13469344      -0.54122869
C        1.13511578      -0.48772662       0.57018195
C       -0.25621950      -0.81630999       0.14771526
C       -1.49875073      -0.25069258       0.77255858
O       -2.45234903      -0.97252493       0.93361535
C       -1.49512080       1.18730266       1.22300741
H        2.41871335      -0.92127247      -1.45237863
H        1.22812829       1.01789521      -2.26901907
H        0.44505113      -0.61072260      -2.47279227
H        2.29488874      -1.22428526      -0.26093184
H        1.40973374       0.07950938       1.44970214
H       -0.40543968      -1.80216692      -0.28797740
H       -2.50837680       1.48724472       1.48031759
H       -0.85074334       1.29545943       2.09787824
H       -1.10195483       1.84195910       0.44428338
16
Frame=16 idx=006869 GeodesicLength=1.0499951452175038 rxn_smarts="[C:1]([N:2]1[C:3]([H:11])([H:12])[C@:4]1([C:5](=[O:6])[C:7]([H:14])([H:15])[H:16])[H:13])([H:8])([H:9])[H:10]>>[C-:1]([N+:2]1=[C:3]([H:12])[C@:4]1([C:5](=[O:6])[C:7]([H:14])([H:15])[H:16])[H:13])([H:9])[H:10].[H:8][H:11]"
C        1.04722175       0.03650335      -1.83485200
N        0.59531835       0.13419052      -0.53977949
C        1.13149797      -0.50047503       0.57039382
C       -0.26119140      -0.81659690       0.14327038
C       -1.50124784      -0.24554958       0.76824322
O       -2.46052076      -0.96140140       0.92252294
C       -1.48879147       1.18960680       1.22742654
H        2.44212437      -0.88237175      -1.46480379
H        1.17677141       1.01476667      -2.28540621
H        0.46929125      -0.64488768      -2.46070432
H        2.30437118      -1.22146100      -0.24394074
H        1.39776967       0.06779474       1.45219111
H       -0.41681203      -1.79940101      -0.29649540
H       -2.50120525       1.49683052       1.47954521
H       -0.84942681       1.28691436       2.10721279
H       -1.08517038       1.84553739       0.45517595
