11
Frame=0 idx=011663 GeodesicLength=0.0 rxn_smarts="[O:1]=[C:2]1[O:3][C:4]([H:8])([H:9])[C@@:5]12[C:6]([H:10])([H:11])[O:7]2>>[O:1]=[C:2]=[C:5]1[C:6]([H:10])([H:11])[O:7]1.[O:3]=[C:4]([H:8])[H:9]"
O       -0.51415163       2.43670352      -0.62468481
C       -0.12243407       1.37524180      -0.46222860
O       -1.60013572      -0.07354015      -0.92048591
C       -1.53275066      -0.42008361       0.27045735
C        0.47221668       0.34360550       0.28656285
C        1.44960966      -0.64345323      -0.12404395
O        1.79599509       0.47714947       0.69538542
H       -1.30106724      -1.45891148       0.54740005
H       -1.97024502       0.19074888       1.07321095
H        1.87233611      -0.62353381      -1.12284443
H        1.45062682      -1.60392690       0.38127110
11
Frame=1 idx=011663 GeodesicLength=0.0547984797642976 rxn_smarts="[O:1]=[C:2]1[O:3][C:4]([H:8])([H:9])[C@@:5]12[C:6]([H:10])([H:11])[O:7]2>>[O:1]=[C:2]=[C:5]1[C:6]([H:10])([H:11])[O:7]1.[O:3]=[C:4]([H:8])[H:9]"
O       -0.49057376       2.44262909      -0.65707681
C       -0.12883062       1.36959939      -0.48718981
O       -1.62811244      -0.06919189      -0.90287441
C       -1.53936287      -0.42058116       0.28994964
C        0.46799181       0.33890384       0.25852450
C        1.46189563      -0.63881027      -0.13291511
O        1.76767002       0.45520262       0.73742959
H       -1.29626580      -1.45643506       0.56675221
H       -1.97916945       0.18339652       1.09653934
H        1.93397155      -0.58915615      -1.10837079
H        1.43078593      -1.61555692       0.33923166
11
Frame=2 idx=011663 GeodesicLength=0.10798779496308605 rxn_smarts="[O:1]=[C:2]1[O:3][C:4]([H:8])([H:9])[C@@:5]12[C:6]([H:10])([H:11])[O:7]2>>[O:1]=[C:2]=[C:5]1[C:6]([H:10])([H:11])[O:7]1.[O:3]=[C:4]([H:8])[H:9]"
O       -0.46604317       2.44754407      -0.69111717
C       -0.13530696       1.36407052      -0.51175701
O       -1.65469913      -0.06449064      -0.88453163
C       -1.54487908      -0.42083090       0.30968696
C        0.46413587       0.33470961       0.23099045
C        1.47365780      -0.63376024      -0.14125833
O        1.73645527       0.43131529       0.77781147
H       -1.29094245      -1.45371785       0.58595503
H       -1.98757424       0.17548532       1.12018942
H        1.99360296      -0.55436988      -1.09002725
H        1.41159313      -1.62595530       0.29405805
11
Frame=3 idx=011663 GeodesicLength=0.15958196822891624 rxn_smarts="[O:1]=[C:2]1[O:3][C:4]([H:8])([H:9])[C@@:5]12[C:6]([H:10])([H:11])[O:7]2>>[O:1]=[C:2]=[C:5]1[C:6]([H:10])([H:11])[O:7]1.[O:3]=[C:4]([H:8])[H:9]"
O       -0.44125556       2.45205234      -0.72554546
C       -0.14172361       1.35921222      -0.53561527
O       -1.67891324      -0.05977810      -0.86625521
C       -1.54898923      -0.42093857       0.32923765
C        0.46084045       0.33151918       0.20461701
C        1.48434508      -0.62867036      -0.14899073
O        1.70349289       0.40596363       0.81544598
H       -1.28487996      -1.45096770       0.60505924
H       -1.99594417       0.16700086       1.14338297
H        2.04944449      -0.52047065      -1.06867609
H        1.39358285      -1.63492286       0.24733992
11
Frame=4 idx=011663 GeodesicLength=0.20974751088073554 rxn_smarts="[O:1]=[C:2]1[O:3][C:4]([H:8])([H:9])[C@@:5]12[C:6]([H:10])([H:11])[O:7]2>>[O:1]=[C:2]=[C:5]1[C:6]([H:10])([H:11])[O:7]1.[O:3]=[C:4]([H:8])[H:9]"
O       -0.41584889       2.45574672      -0.76091595
C       -0.14809277       1.35489983      -0.55839976
O       -1.70087755      -0.05494917      -0.84782028
C       -1.55180091      -0.42091465       0.34869479
C        0.45805023       0.32931527       0.17965075
C        1.49406221      -0.62334854      -0.15607290
O        1.66908784       0.37933311       0.85031783
H       -1.27809461      -1.44810775       0.62394482
H       -2.00447676       0.15764852       1.16623660
H        2.10167250      -0.48746274      -1.04446367
H        1.37631873      -1.64216060       0.19882778
11
Frame=5 idx=011663 GeodesicLength=0.2587417387736717 rxn_smarts="[O:1]=[C:2]1[O:3][C:4]([H:8])([H:9])[C@@:5]12[C:6]([H:10])([H:11])[O:7]2>>[O:1]=[C:2]=[C:5]1[C:6]([H:10])([H:11])[O:7]1.[O:3]=[C:4]([H:8])[H:9]"
O       -0.38999423       2.45895563      -0.79679314
C       -0.15434877       1.35144476      -0.57985411
O       -1.72031024      -0.05014203      -0.82960160
C       -1.55325403      -0.42087080       0.36785586
C        0.45581864       0.32835804       0.15648109
C        1.50253516      -0.61795970      -0.16249040
O        1.63414218       0.35192745       0.88205971
H       -1.27050931      -1.44531817       0.64252459
H       -2.01345311       0.14722570       1.18841639
H        2.14947906      -0.45606716      -1.01816945
H        1.35989466      -1.64755371       0.14957107
11
Frame=6 idx=011663 GeodesicLength=0.30671577922987237 rxn_smarts="[O:1]=[C:2]1[O:3][C:4]([H:8])([H:9])[C@@:5]12[C:6]([H:10])([H:11])[O:7]2>>[O:1]=[C:2]=[C:5]1[C:6]([H:10])([H:11])[O:7]1.[O:3]=[C:4]([H:8])[H:9]"
O       -0.36382800       2.46171695      -0.83286821
C       -0.16041116       1.34897488      -0.59979602
O       -1.73712291      -0.04548474      -0.81179760
C       -1.55340509      -0.42084919       0.38662693
C        0.45419150       0.32878182       0.13533178
C        1.50969652      -0.61255160      -0.16826685
O        1.59941755       0.32417346       0.91055606
H       -1.26214678      -1.44261735       0.66080642
H       -2.02317252       0.13557707       1.20966134
H        2.19264380      -0.42672790      -0.99047170
H        1.34413709      -1.65099341       0.10021785
11
Frame=7 idx=011663 GeodesicLength=0.3535818987749898 rxn_smarts="[O:1]=[C:2]1[O:3][C:4]([H:8])([H:9])[C@@:5]12[C:6]([H:10])([H:11])[O:7]2>>[O:1]=[C:2]=[C:5]1[C:6]([H:10])([H:11])[O:7]1.[O:3]=[C:4]([H:8])[H:9]"
O       -0.33765879       2.46397163      -0.86847663
C       -0.16614739       1.34747831      -0.61822261
O       -1.75115652      -0.04116682      -0.79459485
C       -1.55229821      -0.42080758       0.40492528
C        0.45319050       0.33065354       0.11624223
C        1.51547820      -0.60718211      -0.17353032
O        1.56546908       0.29643738       0.93571036
H       -1.25303646      -1.43985234       0.67889764
H       -2.03390640       0.12268202       1.22963721
H        2.23120120      -0.39984628      -0.96204261
H        1.32886478      -1.65236776       0.05145429
11
Frame=8 idx=011663 GeodesicLength=0.39979730660332446 rxn_smarts="[O:1]=[C:2]1[O:3][C:4]([H:8])([H:9])[C@@:5]12[C:6]([H:10])([H:11])[O:7]2>>[O:1]=[C:2]=[C:5]1[C:6]([H:10])([H:11])[O:7]1.[O:3]=[C:4]([H:8])[H:9]"
O       -0.31137207       2.46584888      -0.90402271
C       -0.17163504       1.34712003      -0.63494053
O       -1.76271775      -0.03716382      -0.77803014
C       -1.55010817      -0.42079605       0.42280402
C        0.45280371       0.33398277       0.09933051
C        1.52004491      -0.60188318      -0.17825220
O        1.53272736       0.26903742       0.95794917
H       -1.24323127      -1.43717839       0.69674429
H       -2.04581210       0.10839004       1.24840716
H        2.26538191      -0.37548504      -0.93341261
H        1.31391851      -1.65187264       0.00342304
11
Frame=9 idx=011663 GeodesicLength=0.44509444911069856 rxn_smarts="[O:1]=[C:2]1[O:3][C:4]([H:8])([H:9])[C@@:5]12[C:6]([H:10])([H:11])[O:7]2>>[O:1]=[C:2]=[C:5]1[C:6]([H:10])([H:11])[O:7]1.[O:3]=[C:4]([H:8])[H:9]"
O       -0.28567165       2.46736474      -0.93823597
C       -0.17663672       1.34774917      -0.65031265
O       -1.77143716      -0.03380880      -0.76242256
C       -1.54671484      -0.42068427       0.44015520
C        0.45308235       0.33879092       0.08440334
C        1.52324106      -0.59673656      -0.18262827
O        1.50150488       0.24226885       0.97720672
H       -1.23266431      -1.43426873       0.71465824
H       -2.05896204       0.09284513       1.26545645
H        2.29531356      -0.35406977      -0.90518275
H        1.29894488      -1.64945069      -0.04309776
11
Frame=10 idx=011663 GeodesicLength=0.49007297026280194 rxn_smarts="[O:1]=[C:2]1[O:3][C:4]([H:8])([H:9])[C@@:5]12[C:6]([H:10])([H:11])[O:7]2>>[O:1]=[C:2]=[C:5]1[C:6]([H:10])([H:11])[O:7]1.[O:3]=[C:4]([H:8])[H:9]"
O       -0.25993682       2.46852500      -0.97240543
C       -0.18139939       1.34952791      -0.66404433
O       -1.77809872      -0.03072741      -0.74744085
C       -1.54248131      -0.42052126       0.45719929
C        0.45389553       0.34495484       0.07147453
C        1.52536871      -0.59171781      -0.18666912
O        1.47180663       0.21615244       0.99413706
H       -1.22152391      -1.43139609       0.73235565
H       -2.07336324       0.07574945       1.28127253
H        2.32166068      -0.33514625      -0.87745325
H        1.28407183      -1.64540082      -0.08842607
11
Frame=11 idx=011663 GeodesicLength=0.5345702937193926 rxn_smarts="[O:1]=[C:2]1[O:3][C:4]([H:8])([H:9])[C@@:5]12[C:6]([H:10])([H:11])[O:7]2>>[O:1]=[C:2]=[C:5]1[C:6]([H:10])([H:11])[O:7]1.[O:3]=[C:4]([H:8])[H:9]"
O       -0.23425665       2.46903830      -1.00620421
C       -0.18576083       1.35222537      -0.67635611
O       -1.78275430      -0.02802413      -0.73298102
C       -1.53748321      -0.42021309       0.47403595
C        0.45525549       0.35235060       0.06031174
C        1.52649464      -0.58673790      -0.19045048
O        1.44352276       0.19077583       1.00887144
H       -1.20992889      -1.42833557       0.75000891
H       -2.08896915       0.05711069       1.29572617
H        2.34490701      -0.31857240      -0.85030318
H        1.26897313      -1.63961770      -0.13265920
11
Frame=12 idx=011663 GeodesicLength=0.5789512057562224 rxn_smarts="[O:1]=[C:2]1[O:3][C:4]([H:8])([H:9])[C@@:5]12[C:6]([H:10])([H:11])[O:7]2>>[O:1]=[C:2]=[C:5]1[C:6]([H:10])([H:11])[O:7]1.[O:3]=[C:4]([H:8])[H:9]"
O       -0.20820729       2.46872292      -1.04043748
C       -0.18981215       1.35594424      -0.68708763
O       -1.78568186      -0.02538768      -0.71884380
C       -1.53182487      -0.41976935       0.49082302
C        0.45703625       0.36088846       0.05089218
C        1.52665223      -0.58173434      -0.19400062
O        1.41643213       0.16605863       1.02184203
H       -1.19792632      -1.42520734       0.76745118
H       -2.10560959       0.03663493       1.30909770
H        2.36532169      -0.30399527      -0.82378723
H        1.25361977      -1.63215520      -0.17594934
11
Frame=13 idx=011663 GeodesicLength=0.6232579842917928 rxn_smarts="[O:1]=[C:2]1[O:3][C:4]([H:8])([H:9])[C@@:5]12[C:6]([H:10])([H:11])[O:7]2>>[O:1]=[C:2]=[C:5]1[C:6]([H:10])([H:11])[O:7]1.[O:3]=[C:4]([H:8])[H:9]"
O       -0.18239451       2.46785654      -1.07449248
C       -0.19356662       1.36072943      -0.69645378
O       -1.78699286      -0.02302895      -0.70525356
C       -1.52559405      -0.41907263       0.50752700
C        0.45932172       0.37058533       0.04309776
C        1.52598804      -0.57687187      -0.19739444
O        1.39088352       0.14220718       1.03319719
H       -1.18553234      -1.42192077       0.78487443
H       -2.12335256       0.01454775       1.32107353
H        2.38325215      -0.29170677      -0.79817810
H        1.23798751      -1.62332523      -0.21799757
11
Frame=14 idx=011663 GeodesicLength=0.6672697775883507 rxn_smarts="[O:1]=[C:2]1[O:3][C:4]([H:8])([H:9])[C@@:5]12[C:6]([H:10])([H:11])[O:7]2>>[O:1]=[C:2]=[C:5]1[C:6]([H:10])([H:11])[O:7]1.[O:3]=[C:4]([H:8])[H:9]"
O       -0.15711416       2.46645955      -1.10742890
C       -0.19676797       1.36630109      -0.70479427
O       -1.78631065      -0.02128781      -0.69230262
C       -1.51870564      -0.41801428       0.52415794
C        0.46216952       0.38139038       0.03670167
C        1.52438538      -0.57210660      -0.20075764
O        1.36681071       0.11940930       1.04281140
H       -1.17275146      -1.41815562       0.80261991
H       -2.14221145      -0.00913259       1.33120112
H        2.39876412      -0.28180527      -0.77380816
H        1.22173161      -1.61305815      -0.25840046
11
Frame=15 idx=011663 GeodesicLength=0.7113029107784651 rxn_smarts="[O:1]=[C:2]1[O:3][C:4]([H:8])([H:9])[C@@:5]12[C:6]([H:10])([H:11])[O:7]2>>[O:1]=[C:2]=[C:5]1[C:6]([H:10])([H:11])[O:7]1.[O:3]=[C:4]([H:8])[H:9]"
O       -0.13195352       2.46426178      -1.14044020
C       -0.19965668       1.37285710      -0.71181087
O       -1.78426161      -0.01965172      -0.67972723
C       -1.51140912      -0.41661036       0.54086422
C        0.46543624       0.39314860       0.03172432
C        1.52203975      -0.56741408      -0.20399155
O        1.34398820       0.09750199       1.05122911
H       -1.15971602      -1.41416469       0.82028792
H       -2.16176022      -0.03456726       1.33993602
H        2.41222150      -0.27383932      -0.75043930
H        1.20507147      -1.60152203      -0.29763243
11
Frame=16 idx=011663 GeodesicLength=0.7552359245096381 rxn_smarts="[O:1]=[C:2]1[O:3][C:4]([H:8])([H:9])[C@@:5]12[C:6]([H:10])([H:11])[O:7]2>>[O:1]=[C:2]=[C:5]1[C:6]([H:10])([H:11])[O:7]1.[O:3]=[C:4]([H:8])[H:9]"
O       -0.10760483       2.46160953      -1.17227102
C       -0.20202170       1.38005697      -0.71807679
O       -1.78057529      -0.01861524      -0.66772814
C       -1.50365720      -0.41469705       0.55764640
C        0.46925408       0.40580681       0.02788653
C        1.51898167      -0.56287761      -0.20717413
O        1.32248575       0.07669323       1.05834886
H       -1.14640335      -1.40960388       0.83835727
H       -2.18204675      -0.06146740       1.34672369
H        2.42385250      -0.26808797      -0.72825997
H        1.18773512      -1.58881739      -0.33545270
