11
Frame=0 idx=005457 GeodesicLength=0.0 rxn_smarts="[O:1]=[C:2]1[N:3]([H:7])[C:4]([H:8])([H:9])[C:5]([H:10])([H:11])[O:6]1>>[O-:1][C-:2]1[N+:3]([H:7])([H:11])[C:4]([H:8])([H:9])[C:5]([H:10])=[O+:6]1"
O        2.50013106       0.09919786       0.25440926
C        1.33550615       0.27415198       0.07101167
N        0.38325992      -0.80046360      -0.29638313
C       -0.88255821      -0.34176814       0.35168288
C       -0.77332482       0.97534379      -0.38013587
O        0.61558677       1.35254232       0.06558016
H        0.75040805      -1.74297442      -0.21894703
H       -1.71986954      -0.95480700       0.02552904
H       -0.76335921      -0.35610793       1.44224565
H       -1.41815371       1.78979238      -0.06297497
H       -0.02762648      -0.29490725      -1.25201771
11
Frame=1 idx=005457 GeodesicLength=0.07368260215115952 rxn_smarts="[O:1]=[C:2]1[N:3]([H:7])[C:4]([H:8])([H:9])[C:5]([H:10])([H:11])[O:6]1>>[O-:1][C-:2]1[N+:3]([H:7])([H:11])[C:4]([H:8])([H:9])[C:5]([H:10])=[O+:6]1"
O        2.50403532       0.10002392       0.24829363
C        1.33738033       0.27261776       0.07631738
N        0.38515061      -0.80096747      -0.29148847
C       -0.88203249      -0.34278015       0.35221421
C       -0.77090435       0.97365839      -0.38312789
O        0.61833171       1.35289167       0.05869892
H        0.75138075      -1.74291678      -0.20723696
H       -1.71634146      -0.95770117       0.02089326
H       -0.77458476      -0.35691240       1.44363120
H       -1.41441940       1.78527184      -0.05533331
H       -0.03799625      -0.28318560      -1.26286197
11
Frame=2 idx=005457 GeodesicLength=0.14734457053997396 rxn_smarts="[O:1]=[C:2]1[N:3]([H:7])[C:4]([H:8])([H:9])[C:5]([H:10])([H:11])[O:6]1>>[O-:1][C-:2]1[N+:3]([H:7])([H:11])[C:4]([H:8])([H:9])[C:5]([H:10])=[O+:6]1"
O        2.50789380       0.10087400       0.24203767
C        1.33931585       0.27113831       0.08148273
N        0.38715164      -0.80158766      -0.28627945
C       -0.88149514      -0.34384567       0.35269015
C       -0.76848926       0.97200434      -0.38596595
O        0.62112945       1.35315937       0.05176301
H        0.75247660      -1.74290899      -0.19512940
H       -1.71272161      -0.96064532       0.01610719
H       -0.78602570      -0.35780473       1.44486215
H       -1.41053601       1.78078337      -0.04761008
H       -0.04869963      -0.27116703      -1.27395801
11
Frame=3 idx=005457 GeodesicLength=0.22093410602755992 rxn_smarts="[O:1]=[C:2]1[N:3]([H:7])[C:4]([H:8])([H:9])[C:5]([H:10])([H:11])[O:6]1>>[O-:1][C-:2]1[N+:3]([H:7])([H:11])[C:4]([H:8])([H:9])[C:5]([H:10])=[O+:6]1"
O        2.51169810       0.10173394       0.23570241
C        1.34131981       0.26971763       0.08647992
N        0.38926393      -0.80232492      -0.28075479
C       -0.88093975      -0.34496498       0.35311455
C       -0.76608247       0.97037952      -0.38865193
O        0.62398008       1.35334707       0.04475274
H        0.75369932      -1.74294990      -0.18263683
H       -1.70900371      -0.96364194       0.01118498
H       -0.79766145      -0.35878443       1.44593428
H       -1.40650590       1.77632629      -0.03980536
H       -0.05976794      -0.25883828      -1.28531996
11
Frame=4 idx=005457 GeodesicLength=0.2943706044731803 rxn_smarts="[O:1]=[C:2]1[N:3]([H:7])[C:4]([H:8])([H:9])[C:5]([H:10])([H:11])[O:6]1>>[O-:1][C-:2]1[N+:3]([H:7])([H:11])[C:4]([H:8])([H:9])[C:5]([H:10])=[O+:6]1"
O        2.51544346       0.10259164       0.22934724
C        1.34339758       0.26835918       0.09128824
N        0.39148725      -0.80317953      -0.27491739
C       -0.88036094      -0.34613767       0.35349284
C       -0.76368638       0.96878078      -0.39118942
O        0.62688294       1.35345660       0.03764910
H        0.75505154      -1.74303932      -0.16977948
H       -1.70518395      -0.96669269       0.00614351
H       -0.80947086      -0.35985016       1.44684577
H       -1.40233144       1.77189920      -0.03192350
H       -0.07122921      -0.24618804      -1.29695692
11
Frame=5 idx=005457 GeodesicLength=0.3675368903736063 rxn_smarts="[O:1]=[C:2]1[N:3]([H:7])[C:4]([H:8])([H:9])[C:5]([H:10])([H:11])[O:6]1>>[O-:1][C-:2]1[N+:3]([H:7])([H:11])[C:4]([H:8])([H:9])[C:5]([H:10])=[O+:6]1"
O        2.51912850       0.10343657       0.22302794
C        1.34555225       0.26706758       0.09589768
N        0.39381992      -0.80415022      -0.26877552
C       -0.87975386      -0.34736203       0.35383230
C       -0.76130336       0.96720352      -0.39358454
O        0.62983728       1.35349158       0.03043611
H        0.75653372      -1.74317781      -0.15658746
H       -1.70126035      -0.96979675       0.00100251
H       -0.82143112      -0.36100075       1.44759702
H       -1.39801590       1.76750078      -0.02397402
H       -0.08310708      -0.23321246      -1.30887200
11
Frame=6 idx=005457 GeodesicLength=0.440302794217748 rxn_smarts="[O:1]=[C:2]1[N:3]([H:7])[C:4]([H:8])([H:9])[C:5]([H:10])([H:11])[O:6]1>>[O-:1][C-:2]1[N+:3]([H:7])([H:11])[C:4]([H:8])([H:9])[C:5]([H:10])=[O+:6]1"
O        2.52275213       0.10426323       0.21680966
C        1.34778555       0.26584790       0.10030062
N        0.39626026      -0.80524159      -0.26234527
C       -0.87911406      -0.34863457       0.35414257
C       -0.75893479       0.96564067      -0.39584593
O        0.63284141       1.35345796       0.02309586
H        0.75814755      -1.74337737      -0.14310575
H       -1.69723543      -0.97295063      -0.00421231
H       -0.83351447      -0.36223062       1.44819250
H       -1.39356316       1.76312768      -0.01597339
H       -0.09542500      -0.21990266      -1.32105855
11
Frame=7 idx=005457 GeodesicLength=0.5138913196256141 rxn_smarts="[O:1]=[C:2]1[N:3]([H:7])[C:4]([H:8])([H:9])[C:5]([H:10])([H:11])[O:6]1>>[O-:1][C-:2]1[N+:3]([H:7])([H:11])[C:4]([H:8])([H:9])[C:5]([H:10])=[O+:6]1"
O        2.52635776       0.10506273       0.21059655
C        1.35013029       0.26466035       0.10435497
N        0.39887769      -0.80650382      -0.25537714
C       -0.87843891      -0.34999435       0.35435185
C       -0.75656921       0.96411297      -0.39791892
O        0.63591101       1.35330627       0.01558356
H        0.75997628      -1.74364567      -0.12900165
H       -1.69305006      -0.97620300      -0.00966549
H       -0.84585148      -0.36356579       1.44856014
H       -1.38893069       1.75878792      -0.00779880
H       -0.10841268      -0.20601761      -1.33368507
11
Frame=8 idx=005457 GeodesicLength=0.5874778089806352 rxn_smarts="[O:1]=[C:2]1[N:3]([H:7])[C:4]([H:8])([H:9])[C:5]([H:10])([H:11])[O:6]1>>[O-:1][C-:2]1[N+:3]([H:7])([H:11])[C:4]([H:8])([H:9])[C:5]([H:10])=[O+:6]1"
O        2.52994065       0.10583366       0.20443536
C        1.35257473       0.26352687       0.10814832
N        0.40163896      -0.80791631      -0.24798496
C       -0.87773108      -0.35142326       0.35449533
C       -0.75421217       0.96260387      -0.39983676
O        0.63903870       1.35306277       0.00790349
H        0.76198263      -1.74398437      -0.11443057
H       -1.68872739      -0.97953229      -0.01528152
H       -0.85838067      -0.36499643       1.44872489
H       -1.38413548       1.75447224       0.00048811
H       -0.12198888      -0.19164675      -1.34666169
11
Frame=9 idx=005457 GeodesicLength=0.6618365095920893 rxn_smarts="[O:1]=[C:2]1[N:3]([H:7])[C:4]([H:8])([H:9])[C:5]([H:10])([H:11])[O:6]1>>[O-:1][C-:2]1[N+:3]([H:7])([H:11])[C:4]([H:8])([H:9])[C:5]([H:10])=[O+:6]1"
O        2.53355059       0.10658006       0.19818714
C        1.35515140       0.26242841       0.11162374
N        0.40456230      -0.80951770      -0.23996110
C       -0.87698256      -0.35295574       0.35450720
C       -0.75186303       0.96112120      -0.40155642
O        0.64225295       1.35269685       0.00002272
H        0.76417218      -1.74439393      -0.09907933
H       -1.68417945      -0.98297488      -0.02120351
H       -0.87120274      -0.36655706       1.44858691
H       -1.37915202       1.75017636       0.00900686
H       -0.13630962      -0.17660356      -1.36013421
11
Frame=10 idx=005457 GeodesicLength=0.7358399211966378 rxn_smarts="[O:1]=[C:2]1[N:3]([H:7])[C:4]([H:8])([H:9])[C:5]([H:10])([H:11])[O:6]1>>[O-:1][C-:2]1[N+:3]([H:7])([H:11])[C:4]([H:8])([H:9])[C:5]([H:10])=[O+:6]1"
O        2.53715465       0.10728842       0.19195783
C        1.35782676       0.26137005       0.11486995
N        0.40764605      -0.81125218      -0.23150203
C       -0.87621034      -0.35456198       0.35445679
C       -0.74950882       0.95965453      -0.40313310
O        0.64551997       1.35222262      -0.00805058
H        0.76656499      -1.74485059      -0.08323291
H       -1.67949449      -0.98651343      -0.02730929
H       -0.88425069      -0.36822861       1.44824401
H       -1.37397571       1.74590188       0.01763087
H       -0.15127237      -0.16103072      -1.37393154
11
Frame=11 idx=005457 GeodesicLength=0.8096538457680098 rxn_smarts="[O:1]=[C:2]1[N:3]([H:7])[C:4]([H:8])([H:9])[C:5]([H:10])([H:11])[O:6]1>>[O-:1][C-:2]1[N+:3]([H:7])([H:11])[C:4]([H:8])([H:9])[C:5]([H:10])=[O+:6]1"
O        2.54079340       0.10796999       0.18563964
C        1.36062270       0.26035725       0.11790053
N        0.41088741      -0.81315226      -0.22252784
C       -0.87541925      -0.35625585       0.35431253
C       -0.74715483       0.95820371      -0.40454945
O        0.64886408       1.35164498      -0.01633156
H        0.76914642      -1.74537609      -0.06673310
H       -1.67463001      -0.99016239      -0.03367277
H       -0.89758102      -0.37002777       1.44763866
H       -1.36860469       1.74164496       0.02642275
H       -0.16692421      -0.14484652      -1.38809938
11
Frame=12 idx=005457 GeodesicLength=0.8829916211838611 rxn_smarts="[O:1]=[C:2]1[N:3]([H:7])[C:4]([H:8])([H:9])[C:5]([H:10])([H:11])[O:6]1>>[O-:1][C-:2]1[N+:3]([H:7])([H:11])[C:4]([H:8])([H:9])[C:5]([H:10])=[O+:6]1"
O        2.54445474       0.10862168       0.17920431
C        1.36352665       0.25940604       0.12078353
N        0.41427756      -0.81519976      -0.21305228
C       -0.87459542      -0.35803103       0.35407842
C       -0.74479390       0.95675598      -0.40581946
O        0.65229104       1.35097276      -0.02479963
H        0.77189018      -1.74595603      -0.04959553
H       -1.66954948      -0.99389222      -0.04029713
H       -0.91117452      -0.37197936       1.44675209
H       -1.36303205       1.73740227       0.03535930
H       -0.18329478      -0.12810032      -1.40261363
11
Frame=13 idx=005457 GeodesicLength=0.9567788208480382 rxn_smarts="[O:1]=[C:2]1[N:3]([H:7])[C:4]([H:8])([H:9])[C:5]([H:10])([H:11])[O:6]1>>[O-:1][C-:2]1[N+:3]([H:7])([H:11])[C:4]([H:8])([H:9])[C:5]([H:10])=[O+:6]1"
O        2.54817522       0.10921374       0.17253431
C        1.36657695       0.25844352       0.12337742
N        0.41789198      -0.81742172      -0.20281872
C       -0.87375074      -0.35993491       0.35368750
C       -0.74240667       0.95532928      -0.40689123
O        0.65579705       1.35010372      -0.03356328
H        0.77491079      -1.74655123      -0.03144916
H       -1.66421519      -0.99780111      -0.04734985
H       -0.92519481      -0.37410187       1.44551502
H       -1.35718122       1.73315241       0.04456010
H       -0.20060335      -0.11043183      -1.41760211
11
Frame=14 idx=005457 GeodesicLength=1.0303581098367387 rxn_smarts="[O:1]=[C:2]1[N:3]([H:7])[C:4]([H:8])([H:9])[C:5]([H:10])([H:11])[O:6]1>>[O-:1][C-:2]1[N+:3]([H:7])([H:11])[C:4]([H:8])([H:9])[C:5]([H:10])=[O+:6]1"
O        2.55197044       0.10976075       0.16563384
C        1.36977341       0.25752042       0.12577615
N        0.42170247      -0.81982322      -0.19192125
C       -0.87288494      -0.36195673       0.35315673
C       -0.73999871       0.95390844      -0.40779127
O        0.65940723       1.34910752      -0.04259622
H        0.77815128      -1.74719809      -0.01238661
H       -1.65861768      -1.00185650      -0.05479417
H       -0.93960752      -0.37641017       1.44392052
H       -1.35107509       1.72891233       0.05399232
H       -0.21882089      -0.09196475      -1.43299003
11
Frame=15 idx=005457 GeodesicLength=1.1038716137512072 rxn_smarts="[O:1]=[C:2]1[N:3]([H:7])[C:4]([H:8])([H:9])[C:5]([H:10])([H:11])[O:6]1>>[O-:1][C-:2]1[N+:3]([H:7])([H:11])[C:4]([H:8])([H:9])[C:5]([H:10])=[O+:6]1"
O        2.55584681       0.11024138       0.15840049
C        1.37312725       0.25661303       0.12796912
N        0.42573071      -0.82239975      -0.18025878
C       -0.87200024      -0.36411596       0.35245724
C       -0.73756005       0.95249509      -0.40850654
O        0.66312532       1.34794078      -0.05193893
H        0.78163809      -1.74785589       0.00778057
H       -1.65270836      -1.00609624      -0.06271539
H       -0.95448608      -0.37893194       1.44191810
H       -1.34466950       1.72466504       0.06370669
H       -0.23804395      -0.07255556      -1.44881256
11
Frame=16 idx=005457 GeodesicLength=1.1773637092003135 rxn_smarts="[O:1]=[C:2]1[N:3]([H:7])[C:4]([H:8])([H:9])[C:5]([H:10])([H:11])[O:6]1>>[O-:1][C-:2]1[N+:3]([H:7])([H:11])[C:4]([H:8])([H:9])[C:5]([H:10])=[O+:6]1"
O        2.55981752       0.11063708       0.15072868
C        1.37665232       0.25571322       0.12996002
N        0.42999790      -0.82515524      -0.16774112
C       -0.87109494      -0.36643139       0.35155531
C       -0.73508006       0.95108342      -0.40902494
O        0.66696393       1.34658015      -0.06162855
H        0.78538848      -1.74849798       0.02923591
H       -1.64642862      -1.01054521      -0.07120778
H       -0.96990251      -0.38169760       1.43944270
H       -1.33792390       1.72039589       0.07375073
H       -0.25839011      -0.05208233      -1.46507094
