11
Frame=0 idx=010683 GeodesicLength=0.0 rxn_smarts="[C:1](#[C:2][c:3]1[c:4]([H:9])[c:5]([H:10])[c:6]([H:11])[o:7]1)[H:8]>>[C:1](#[C:2][C:3]([C:4](=[C:5]=[C:6]([H:10])[H:11])[H:9])=[O:7])[H:8]"
C        2.88189679       0.50510511      -0.35641083
C        1.71914255       0.28247175      -0.18113011
C        0.33643310       0.04907467       0.04768538
C       -0.58622276       0.75665784       0.74408654
C       -1.85995700       0.05680194       0.71375002
C       -1.53775099      -1.00099488      -0.16215348
O       -0.20594530      -1.04318846      -0.53625367
H        3.91680786       0.69999708      -0.51446141
H       -0.38346251       1.67394717       1.27434410
H       -2.19357782      -0.07540130      -0.64055521
H       -2.08736392      -1.90447095      -0.38890137
11
Frame=1 idx=010683 GeodesicLength=0.10757137984459837 rxn_smarts="[C:1](#[C:2][c:3]1[c:4]([H:9])[c:5]([H:10])[c:6]([H:11])[o:7]1)[H:8]>>[C:1](#[C:2][C:3]([C:4](=[C:5]=[C:6]([H:10])[H:11])[H:9])=[O:7])[H:8]"
C        2.89384846       0.50927499      -0.34365059
C        1.72808414       0.28837774      -0.18649306
C        0.33995898       0.05873078       0.01674934
C       -0.58162371       0.75676537       0.73222251
C       -1.84720897       0.05289947       0.71221404
C       -1.55391186      -1.00427686      -0.16559867
O       -0.19802951      -1.03420879      -0.56008778
H        3.93105793       0.70040894      -0.49101434
H       -0.37448851       1.66593291       1.27458507
H       -2.23953860      -0.07607197      -0.62752722
H       -2.09814834      -1.91783258      -0.36139931
11
Frame=2 idx=010683 GeodesicLength=0.21505970661959944 rxn_smarts="[C:1](#[C:2][c:3]1[c:4]([H:9])[c:5]([H:10])[c:6]([H:11])[o:7]1)[H:8]>>[C:1](#[C:2][C:3]([C:4](=[C:5]=[C:6]([H:10])[H:11])[H:9])=[O:7])[H:8]"
C        2.90490254       0.51446190      -0.33140888
C        1.73593777       0.29679673      -0.19481664
C        0.34328036       0.06986512      -0.01616578
C       -0.57685127       0.75682491       0.71979881
C       -1.83370482       0.04816018       0.71068262
C       -1.56993029      -1.00779220      -0.16902179
O       -0.18972220      -1.02398246      -0.58593759
H        3.94579229       0.69676021      -0.46320245
H       -0.36551714       1.65779721       1.27403753
H       -2.28714888      -0.07747434      -0.61089221
H       -2.10703836      -1.93141726      -0.33307362
11
Frame=3 idx=010683 GeodesicLength=0.3225277326349432 rxn_smarts="[C:1](#[C:2][c:3]1[c:4]([H:9])[c:5]([H:10])[c:6]([H:11])[o:7]1)[H:8]>>[C:1](#[C:2][C:3]([C:4](=[C:5]=[C:6]([H:10])[H:11])[H:9])=[O:7])[H:8]"
C        2.91554699       0.51891149      -0.31959387
C        1.74320776       0.30583074      -0.20558916
C        0.34689031       0.08046322      -0.04889031
C       -0.57169825       0.75680906       0.70665437
C       -1.81997483       0.04385129       0.70789640
C       -1.58641253      -1.01128554      -0.17248503
O       -0.18114749      -1.01395009      -0.61227040
H        3.95994923       0.69379768      -0.43265385
H       -0.35569529       1.64898409       1.27316195
H       -2.33536162      -0.07891860      -0.59200757
H       -2.11530429      -1.94449334      -0.30422253
11
Frame=4 idx=010683 GeodesicLength=0.4299604345131514 rxn_smarts="[C:1](#[C:2][c:3]1[c:4]([H:9])[c:5]([H:10])[c:6]([H:11])[o:7]1)[H:8]>>[C:1](#[C:2][C:3]([C:4](=[C:5]=[C:6]([H:10])[H:11])[H:9])=[O:7])[H:8]"
C        2.92558059       0.52376992      -0.30876293
C        1.75091615       0.31353423      -0.21495542
C        0.35160672       0.08832953      -0.07817000
C       -0.56623930       0.75611907       0.69366707
C       -1.80699543       0.04092228       0.70236157
C       -1.60375127      -1.01437433      -0.17659663
O       -0.17157616      -1.00582235      -0.63655452
H        3.97263308       0.69354658      -0.40408228
H       -0.34543595       1.63930295       1.27229449
H       -2.38253853      -0.07928802      -0.57328191
H       -2.12419991      -1.95603985      -0.27591946
11
Frame=5 idx=010683 GeodesicLength=0.5374176330277409 rxn_smarts="[C:1](#[C:2][c:3]1[c:4]([H:9])[c:5]([H:10])[c:6]([H:11])[o:7]1)[H:8]>>[C:1](#[C:2][C:3]([C:4](=[C:5]=[C:6]([H:10])[H:11])[H:9])=[O:7])[H:8]"
C        2.93512870       0.52832050      -0.30213048
C        1.75894976       0.31929826      -0.22550435
C        0.35706786       0.09416893      -0.10675050
C       -0.55998306       0.75507653       0.67962762
C       -1.79397038       0.03898135       0.69514914
C       -1.62227003      -1.01717679      -0.18077922
O       -0.16196179      -0.99903422      -0.66083608
H        3.98464535       0.69740013      -0.37034039
H       -0.33339876       1.62832514       1.27094673
H       -2.43029914      -0.07899596      -0.55249992
H       -2.13390852      -1.96636386      -0.24688254
11
Frame=6 idx=010683 GeodesicLength=0.6449188972605628 rxn_smarts="[C:1](#[C:2][c:3]1[c:4]([H:9])[c:5]([H:10])[c:6]([H:11])[o:7]1)[H:8]>>[C:1](#[C:2][C:3]([C:4](=[C:5]=[C:6]([H:10])[H:11])[H:9])=[O:7])[H:8]"
C        2.94624298       0.52672058      -0.29046382
C        1.76857218       0.31977318      -0.23206276
C        0.36389396       0.09662948      -0.13289339
C       -0.55299977       0.75343377       0.66476092
C       -1.78156267       0.03878061       0.68505324
C       -1.64237398      -1.01914737      -0.18583624
O       -0.15193038      -0.99443844      -0.68409217
H        3.99345801       0.71329513      -0.34357087
H       -0.32003998       1.61624246       1.26882729
H       -2.47780962      -0.07680636      -0.53141529
H       -2.14545074      -1.97448305      -0.21830692
11
Frame=7 idx=010683 GeodesicLength=0.7526072998635237 rxn_smarts="[C:1](#[C:2][c:3]1[c:4]([H:9])[c:5]([H:10])[c:6]([H:11])[o:7]1)[H:8]>>[C:1](#[C:2][C:3]([C:4](=[C:5]=[C:6]([H:10])[H:11])[H:9])=[O:7])[H:8]"
C        2.95955724       0.51727966      -0.26728332
C        1.78025291       0.31426317      -0.23129283
C        0.37237957       0.09563804      -0.15531376
C       -0.54589489       0.75128081       0.64935995
C       -1.77045753       0.04044016       0.67129346
C       -1.66403366      -1.02008946      -0.19236903
O       -0.14073625      -0.99209574      -0.70547669
H        3.99929337       0.74271756      -0.33287061
H       -0.30660006       1.60312682       1.26642103
H       -2.52478969      -0.07245963      -0.51134839
H       -2.15897100      -1.98010138      -0.19111981
11
Frame=8 idx=010683 GeodesicLength=0.86022217060093 rxn_smarts="[C:1](#[C:2][c:3]1[c:4]([H:9])[c:5]([H:10])[c:6]([H:11])[o:7]1)[H:8]>>[C:1](#[C:2][C:3]([C:4](=[C:5]=[C:6]([H:10])[H:11])[H:9])=[O:7])[H:8]"
C        2.96990890       0.51796984      -0.25950347
C        1.79022057       0.31436935      -0.24030954
C        0.38024174       0.09717684      -0.18261671
C       -0.53839554       0.74982982       0.63164598
C       -1.75747820       0.04035387       0.65877004
C       -1.68548682      -1.02184276      -0.19772473
O       -0.12989438      -0.98730564      -0.73183103
H        4.00721407       0.75724943      -0.29719287
H       -0.29226629       1.58991094       1.26208964
H       -2.57518710      -0.07074304      -0.48223054
H       -2.16887696      -1.98696864      -0.16109676
11
Frame=9 idx=010683 GeodesicLength=0.9677889851432598 rxn_smarts="[C:1](#[C:2][c:3]1[c:4]([H:9])[c:5]([H:10])[c:6]([H:11])[o:7]1)[H:8]>>[C:1](#[C:2][C:3]([C:4](=[C:5]=[C:6]([H:10])[H:11])[H:9])=[O:7])[H:8]"
C        2.98104262       0.51482064      -0.25250009
C        1.80130626       0.31004262      -0.24877095
C        0.38914861       0.09620973      -0.20997721
C       -0.52980994       0.74790640       0.61221826
C       -1.74427744       0.04132146       0.64417757
C       -1.70853763      -1.02286091      -0.20342308
O       -0.11922141      -0.98386065      -0.75937559
H        4.01251367       0.78081798      -0.25874521
H       -0.27601194       1.57541287       1.25619878
H       -2.62639801      -0.06785725      -0.44906717
H       -2.17975478      -1.99195287      -0.13073532
11
Frame=10 idx=010683 GeodesicLength=1.075481254744864 rxn_smarts="[C:1](#[C:2][c:3]1[c:4]([H:9])[c:5]([H:10])[c:6]([H:11])[o:7]1)[H:8]>>[C:1](#[C:2][C:3]([C:4](=[C:5]=[C:6]([H:10])[H:11])[H:9])=[O:7])[H:8]"
C        2.99239150       0.51420883      -0.24747221
C        1.81405530       0.30097125      -0.25189792
C        0.39966211       0.09213876      -0.23452706
C       -0.52082181       0.74500932       0.59252849
C       -1.73207512       0.04358894       0.62624286
C       -1.73310141      -1.02306634      -0.21023021
O       -0.10704584      -0.98289235      -0.78516704
H        4.01592866       0.80849053      -0.22350615
H       -0.25972565       1.55958829       1.25006161
H       -2.67713970      -0.06335059      -0.41445002
H       -2.19212804      -1.99468665      -0.10158236
11
Frame=11 idx=010683 GeodesicLength=1.1832118005036327 rxn_smarts="[C:1](#[C:2][c:3]1[c:4]([H:9])[c:5]([H:10])[c:6]([H:11])[o:7]1)[H:8]>>[C:1](#[C:2][C:3]([C:4](=[C:5]=[C:6]([H:10])[H:11])[H:9])=[O:7])[H:8]"
C        3.00327521       0.51768457      -0.24756753
C        1.82737248       0.29081894      -0.25445688
C        0.41109887       0.08676016      -0.25863597
C       -0.51153325       0.74165732       0.57190220
C       -1.72019376       0.04641674       0.60586214
C       -1.75870596      -1.02288617      -0.21748441
O       -0.09368835      -0.98301506      -0.81112594
H        4.01845878       0.83442686      -0.18346693
H       -0.24356595       1.54305332       1.24288858
H       -2.72830203      -0.05874880      -0.37529282
H       -2.20421603      -1.99616788      -0.07262245
11
Frame=12 idx=010683 GeodesicLength=1.290937304216626 rxn_smarts="[C:1](#[C:2][c:3]1[c:4]([H:9])[c:5]([H:10])[c:6]([H:11])[o:7]1)[H:8]>>[C:1](#[C:2][C:3]([C:4](=[C:5]=[C:6]([H:10])[H:11])[H:9])=[O:7])[H:8]"
C        3.01537890       0.51899204      -0.23477521
C        1.84227020       0.27765369      -0.24767770
C        0.42441842       0.07907314      -0.27781354
C       -0.50310615       0.73774262       0.55176868
C       -1.71051508       0.05080870       0.58055358
C       -1.78544932      -1.02164568      -0.22717588
O       -0.07717638      -0.98503083      -0.83402400
H        4.02010214       0.86554085      -0.16487019
H       -0.23004020       1.52511770       1.23731264
H       -2.77862283      -0.05291151      -0.33638661
H       -2.21725969      -1.99534072      -0.04691178
11
Frame=13 idx=010683 GeodesicLength=1.3986552814183146 rxn_smarts="[C:1](#[C:2][c:3]1[c:4]([H:9])[c:5]([H:10])[c:6]([H:11])[o:7]1)[H:8]>>[C:1](#[C:2][C:3]([C:4](=[C:5]=[C:6]([H:10])[H:11])[H:9])=[O:7])[H:8]"
C        3.02750849       0.52110085      -0.22519834
C        1.85793360       0.26251984      -0.24002458
C        0.43902753       0.06895504      -0.29597471
C       -0.49387814       0.73262903       0.53105648
C       -1.70141189       0.05648355       0.55159724
C       -1.81380445      -1.01955888      -0.23781045
O       -0.05910432      -0.98948751      -0.85600966
H        4.02013771       0.90015912      -0.14393991
H       -0.21637773       1.50569380       1.23113839
H       -2.82868817      -0.04611317      -0.29309350
H       -2.23134262      -1.99238168      -0.02174095
11
Frame=14 idx=010683 GeodesicLength=1.506326501086797 rxn_smarts="[C:1](#[C:2][c:3]1[c:4]([H:9])[c:5]([H:10])[c:6]([H:11])[o:7]1)[H:8]>>[C:1](#[C:2][C:3]([C:4](=[C:5]=[C:6]([H:10])[H:11])[H:9])=[O:7])[H:8]"
C        3.03897638       0.52696819      -0.21731354
C        1.87353558       0.24959169      -0.23327638
C        0.45431964       0.05851722      -0.31397007
C       -0.48483085       0.72716218       0.50948284
C       -1.69324931       0.06337685       0.51836955
C       -1.84311366      -1.01717287      -0.24918192
O       -0.03891020      -0.99502798      -0.87755865
H        4.02026429       0.92998775      -0.12060488
H       -0.20408834       1.48519823       1.22473941
H       -2.87855099      -0.04033371      -0.24421886
H       -2.24435254      -1.98826756       0.00353250
11
Frame=15 idx=010683 GeodesicLength=1.6139218561295432 rxn_smarts="[C:1](#[C:2][c:3]1[c:4]([H:9])[c:5]([H:10])[c:6]([H:11])[o:7]1)[H:8]>>[C:1](#[C:2][C:3]([C:4](=[C:5]=[C:6]([H:10])[H:11])[H:9])=[O:7])[H:8]"
C        3.04958521       0.53617280      -0.21512545
C        1.88867310       0.23949117      -0.23018548
C        0.46977780       0.04815869      -0.33355209
C       -0.47585667       0.72140886       0.48622647
C       -1.68599837       0.07194153       0.48013398
C       -1.87373302      -1.01466832      -0.26066053
O       -0.01744737      -1.00126585      -0.90012194
H        4.02139511       0.95473637      -0.08731480
H       -0.19274560       1.46352297       1.21727812
H       -2.92808070      -0.03639113      -0.18719830
H       -2.25556950      -1.98310711       0.03052001
11
Frame=16 idx=010683 GeodesicLength=1.7213589805401948 rxn_smarts="[C:1](#[C:2][c:3]1[c:4]([H:9])[c:5]([H:10])[c:6]([H:11])[o:7]1)[H:8]>>[C:1](#[C:2][C:3]([C:4](=[C:5]=[C:6]([H:10])[H:11])[H:9])=[O:7])[H:8]"
C        3.06197092       0.53888896      -0.19664873
C        1.90538012       0.22539328      -0.21771237
C        0.48749473       0.03442425      -0.34807823
C       -0.46689414       0.71356602       0.46420087
C       -1.68110871       0.08400359       0.43288842
C       -1.90630443      -1.01024285      -0.27577496
O        0.00759450      -1.01040732      -0.91944604
H        4.01924188       0.99143308      -0.07918855
H       -0.18390399       1.43715863       1.21381101
H       -2.97494734      -0.03031325      -0.12877986
H       -2.26852353      -1.97390438       0.05472845
