16
Frame=0 idx=000673 GeodesicLength=0.0 rxn_smarts="[C:1]([C:2]([C:3]([H:11])([H:12])[H:13])([C:4](=[O:5])[C:6]([H:14])([H:15])[H:16])[H:10])([H:7])([H:8])[H:9]>>[C:1]([C:2]([C:3]([H:11])([H:12])[H:13])([O+:5]=[C-:4][C:6]([H:14])([H:15])[H:16])[H:10])([H:7])([H:8])[H:9]"
C       -1.32170386       0.76050213      -0.82156571
C       -0.56107356      -0.16055707       0.11710432
C       -1.23078891      -0.42822922       1.42992055
C        1.28769658      -0.13296620       0.44539587
O        0.74691436       1.03673960       0.41354328
C        2.32752245      -0.33628174      -0.63379610
H       -0.74285548       0.99491277      -1.71336945
H       -1.60115260       1.69065545      -0.32904229
H       -2.23161972       0.23786145      -1.13032061
H       -0.30758902      -1.06968291      -0.43787880
H       -1.19833721       0.46782235       2.04901043
H       -0.75201266      -1.24488101       1.96273399
H       -2.28186636      -0.67033896       1.24489223
H        3.28223746      -0.08613969      -0.15927575
H        2.39264337      -1.38200220      -0.93847477
H        2.19198518       0.32258531      -1.49887718
16
Frame=1 idx=000673 GeodesicLength=0.06395591328399088 rxn_smarts="[C:1]([C:2]([C:3]([H:11])([H:12])[H:13])([C:4](=[O:5])[C:6]([H:14])([H:15])[H:16])[H:10])([H:7])([H:8])[H:9]>>[C:1]([C:2]([C:3]([H:11])([H:12])[H:13])([O+:5]=[C-:4][C:6]([H:14])([H:15])[H:16])[H:10])([H:7])([H:8])[H:9]"
C       -1.34304926       0.75585114      -0.82128317
C       -0.57123784      -0.16228215       0.11101566
C       -1.22867026      -0.42224038       1.43344998
C        1.27581635      -0.13798915       0.40335579
O        0.74629641       1.03318132       0.39197703
C        2.35432163      -0.33277382      -0.63267602
H       -0.77763082       0.98114842      -1.72413294
H       -1.60844335       1.69112767      -0.33043028
H       -2.26205014       0.23906301      -1.11201100
H       -0.33654648      -1.07896665      -0.44016808
H       -1.19971630       0.48010239       2.04376118
H       -0.73966835      -1.22936758       1.97204537
H       -2.27894340      -0.67666568       1.26188180
H        3.29539141      -0.13962963      -0.10713729
H        2.39856577      -1.36718716      -0.97738792
H        2.27556464       0.36662825      -1.47226011
16
Frame=2 idx=000673 GeodesicLength=0.12786735246877262 rxn_smarts="[C:1]([C:2]([C:3]([H:11])([H:12])[H:13])([C:4](=[O:5])[C:6]([H:14])([H:15])[H:16])[H:10])([H:7])([H:8])[H:9]>>[C:1]([C:2]([C:3]([H:11])([H:12])[H:13])([O+:5]=[C-:4][C:6]([H:14])([H:15])[H:16])[H:10])([H:7])([H:8])[H:9]"
C       -1.36614827       0.75086093      -0.82119852
C       -0.58187613      -0.16390858       0.10388931
C       -1.22505214      -0.41570858       1.43676561
C        1.26324793      -0.14223223       0.35745297
O        0.74515176       1.03004470       0.36722807
C        2.38203567      -0.32943177      -0.63008330
H       -0.81568246       0.96678323      -1.73565083
H       -1.61703537       1.69132453      -0.33236528
H       -2.29418217       0.23984742      -1.09231135
H       -0.36653636      -1.08818630      -0.44288808
H       -1.19921252       0.49299971       2.03795259
H       -0.72472872      -1.21279988       1.98046736
H       -2.27439301      -0.68267842       1.28030110
H        3.30334660      -0.19937212      -0.05281419
H        2.40630151      -1.34854726      -1.01972637
H        2.36476368       0.41100461      -1.43701908
16
Frame=3 idx=000673 GeodesicLength=0.19140779219704052 rxn_smarts="[C:1]([C:2]([C:3]([H:11])([H:12])[H:13])([C:4](=[O:5])[C:6]([H:14])([H:15])[H:16])[H:10])([H:7])([H:8])[H:9]>>[C:1]([C:2]([C:3]([H:11])([H:12])[H:13])([O+:5]=[C-:4][C:6]([H:14])([H:15])[H:16])[H:10])([H:7])([H:8])[H:9]"
C       -1.39107671       0.74561846      -0.82126409
C       -0.59297107      -0.16541200       0.09555911
C       -1.21966452      -0.40860558       1.43972678
C        1.24992654      -0.14570075       0.30708133
O        0.74347963       1.02730760       0.33896441
C        2.41053845      -0.32646952      -0.62569104
H       -0.85725969       0.95192966      -1.74786797
H       -1.62692720       1.69132318      -0.33479003
H       -2.32804696       0.24033849      -1.07105075
H       -0.39758029      -1.09728805      -0.44619353
H       -1.19644514       0.50650094       2.03149241
H       -0.70685831      -1.19518968       1.98766148
H       -2.26791808      -0.68824099       1.30018439
H        3.30486744      -0.26496577       0.00294782
H        2.41719265      -1.32559792      -1.06493630
H        2.45874325       0.45445192      -1.39182402
16
Frame=4 idx=000673 GeodesicLength=0.2543217766512992 rxn_smarts="[C:1]([C:2]([C:3]([H:11])([H:12])[H:13])([C:4](=[O:5])[C:6]([H:14])([H:15])[H:16])[H:10])([H:7])([H:8])[H:9]>>[C:1]([C:2]([C:3]([H:11])([H:12])[H:13])([O+:5]=[C-:4][C:6]([H:14])([H:15])[H:16])[H:10])([H:7])([H:8])[H:9]"
C       -1.41804317       0.74025041      -0.82141245
C       -0.60444626      -0.16663766       0.08577363
C       -1.21205132      -0.40093859       1.44211138
C        1.23580110      -0.14806567       0.25150002
O        0.74122114       1.02522966       0.30657945
C        2.43960729      -0.32412337      -0.61901833
H       -0.90286872       0.93682257      -1.76073943
H       -1.63833137       1.69119349      -0.33758280
H       -2.36375092       0.24058954      -1.04795774
H       -0.42958133      -1.10605560      -0.45035308
H       -1.19091035       0.52052834       2.02425795
H       -0.68542378      -1.17658384       1.99309538
H       -2.25898105      -0.69340746       1.32152284
H        3.29867281      -0.33630681       0.05953256
H        2.43243684      -1.29799207      -1.11199595
H        2.55664909       0.49549706      -1.33531344
16
Frame=5 idx=000673 GeodesicLength=0.31629193367295855 rxn_smarts="[C:1]([C:2]([C:3]([H:11])([H:12])[H:13])([C:4](=[O:5])[C:6]([H:14])([H:15])[H:16])[H:10])([H:7])([H:8])[H:9]>>[C:1]([C:2]([C:3]([H:11])([H:12])[H:13])([O+:5]=[C-:4][C:6]([H:14])([H:15])[H:16])[H:10])([H:7])([H:8])[H:9]"
C       -1.44719920       0.73506572      -0.82147894
C       -0.61624093      -0.16746707       0.07417970
C       -1.20169392      -0.39281426       1.44358650
C        1.22076147      -0.14922443       0.18966796
O        0.73837719       1.02386082       0.26950262
C        2.46888939      -0.32278899      -0.60952886
H       -0.95299305       0.92197126      -1.77409029
H       -1.65127801       1.69115315      -0.34040207
H       -2.40137538       0.24095855      -1.02268492
H       -0.46256060      -1.11425787      -0.45585771
H       -1.18191777       0.53484795       2.01611333
H       -0.65976152      -1.15720970       1.99601751
H       -2.24699431      -0.69819914       1.34423340
H        3.28345641      -0.41181920       0.11631424
H        2.45406076      -1.26614691      -1.15875439
H        2.65646945       0.53207012      -1.26681806
16
Frame=6 idx=000673 GeodesicLength=0.3772199807719267 rxn_smarts="[C:1]([C:2]([C:3]([H:11])([H:12])[H:13])([C:4](=[O:5])[C:6]([H:14])([H:15])[H:16])[H:10])([H:7])([H:8])[H:9]>>[C:1]([C:2]([C:3]([H:11])([H:12])[H:13])([O+:5]=[C-:4][C:6]([H:14])([H:15])[H:16])[H:10])([H:7])([H:8])[H:9]"
C       -1.47885847       0.73026920      -0.82131575
C       -0.62818930      -0.16765343       0.06032698
C       -1.18775833      -0.38430180       1.44374789
C        1.20473288      -0.14859999       0.12021165
O        0.73484754       1.02363432       0.22676802
C        2.49780048      -0.32280446      -0.59648038
H       -1.00846037       0.90778043      -1.78781456
H       -1.66607528       1.69131103      -0.34296957
H       -2.44106327       0.24149340      -0.99472465
H       -0.49635928      -1.12155876      -0.46323271
H       -1.16854032       0.54928716       2.00683150
H       -0.62873639      -1.13719639       1.99551080
H       -2.23097014      -0.70279973       1.36826401
H        3.25758811      -0.49097776       0.17319190
H        2.48339496      -1.23046389      -1.20317278
H        2.75664719       0.56258068      -1.18514235
16
Frame=7 idx=000673 GeodesicLength=0.4368716904726095 rxn_smarts="[C:1]([C:2]([C:3]([H:11])([H:12])[H:13])([C:4](=[O:5])[C:6]([H:14])([H:15])[H:16])[H:10])([H:7])([H:8])[H:9]>>[C:1]([C:2]([C:3]([H:11])([H:12])[H:13])([O+:5]=[C-:4][C:6]([H:14])([H:15])[H:16])[H:10])([H:7])([H:8])[H:9]"
C       -1.51308048       0.72634622      -0.82060734
C       -0.64006120      -0.16702100       0.04364274
C       -1.16931741      -0.37568917       1.44199045
C        1.18760381      -0.14590178       0.04137061
O        0.73065108       1.02463902       0.17769463
C        2.52533159      -0.32466144      -0.57909659
H       -1.06983081       0.89514791      -1.80152934
H       -1.68260407       1.69199123      -0.34463955
H       -2.48271212       0.24268595      -0.96352457
H       -0.53090004      -1.12760865      -0.47331355
H       -1.14964360       0.56336409       1.99615185
H       -0.59117777      -1.11698460       1.99030613
H       -2.20980891      -0.70748644       1.39331327
H        3.21951099      -0.57085048       0.23026601
H        2.52246481      -1.19295276      -1.24135195
H        2.85357413       0.58498189      -1.09067282
16
Frame=8 idx=000673 GeodesicLength=0.49557188219148807 rxn_smarts="[C:1]([C:2]([C:3]([H:11])([H:12])[H:13])([C:4](=[O:5])[C:6]([H:14])([H:15])[H:16])[H:10])([H:7])([H:8])[H:9]>>[C:1]([C:2]([C:3]([H:11])([H:12])[H:13])([O+:5]=[C-:4][C:6]([H:14])([H:15])[H:16])[H:10])([H:7])([H:8])[H:9]"
C       -1.55009683       0.72333622      -0.81915573
C       -0.65124303      -0.16511291       0.02348843
C       -1.14482363      -0.36706299       1.43764392
C        1.16955659      -0.13961234      -0.04888969
O        0.72564042       1.02802439       0.12087168
C        2.54977555      -0.32868479      -0.55623607
H       -1.13808899       0.88434386      -1.81505597
H       -1.70135394       1.69313617      -0.34512643
H       -2.52613707       0.24402677      -0.92831946
H       -0.56533962      -1.13189792      -0.48674427
H       -1.12372267       0.57690253       1.98363345
H       -0.54506972      -1.09665928       1.97897848
H       -2.18161172      -0.71273561       1.41916866
H        3.16610243      -0.65161445       0.28811942
H        2.57111281      -1.15452388      -1.27076862
H        2.94529942       0.59813424      -0.98160780
16
Frame=9 idx=000673 GeodesicLength=0.5530132012336813 rxn_smarts="[C:1]([C:2]([C:3]([H:11])([H:12])[H:13])([C:4](=[O:5])[C:6]([H:14])([H:15])[H:16])[H:10])([H:7])([H:8])[H:9]>>[C:1]([C:2]([C:3]([H:11])([H:12])[H:13])([O+:5]=[C-:4][C:6]([H:14])([H:15])[H:16])[H:10])([H:7])([H:8])[H:9]"
C       -1.58822883       0.72098853      -0.81684979
C       -0.66060492      -0.16204258       0.00007160
C       -1.11365422      -0.35838874       1.43030471
C        1.15116069      -0.12933478      -0.15013449
O        0.72013801       1.03353109       0.05777927
C        2.56798662      -0.33491959      -0.52795526
H       -1.21106791       0.87555830      -1.82758732
H       -1.72102401       1.69440641      -0.34446538
H       -2.56905487       0.24494760      -0.88981088
H       -0.59816085      -1.13451321      -0.50306468
H       -1.09064453       0.58994025       1.96879777
H       -0.48989388      -1.07570231       1.96136888
H       -2.14526875      -0.71881832       1.44478033
H        3.09569300      -0.73153783       0.34424070
H        2.62770080      -1.11616541      -1.28920951
H        3.02492366       0.60205059      -0.85826594
16
Frame=10 idx=000673 GeodesicLength=0.6097510997872786 rxn_smarts="[C:1]([C:2]([C:3]([H:11])([H:12])[H:13])([C:4](=[O:5])[C:6]([H:14])([H:15])[H:16])[H:10])([H:7])([H:8])[H:9]>>[C:1]([C:2]([C:3]([H:11])([H:12])[H:13])([O+:5]=[C-:4][C:6]([H:14])([H:15])[H:16])[H:10])([H:7])([H:8])[H:9]"
C       -1.62446022       0.71812963      -0.81411943
C       -0.66616616      -0.15754367      -0.02487063
C       -1.07691521      -0.34932999       1.42052707
C        1.13453072      -0.11306768      -0.25610998
O        0.71480326       1.04276796      -0.00761182
C        2.57665521      -0.34266800      -0.49589338
H       -1.28380626       0.86692893      -1.83874818
H       -1.74038576       1.69494414      -0.34400433
H       -2.60780766       0.24337290      -0.84996368
H       -0.62535916      -1.13550136      -0.51990064
H       -1.05340615       0.60306289       1.95202294
H       -0.42775259      -1.05336805       1.93931139
H       -2.10146560      -0.72610598       1.46855041
H        3.00893201      -0.81257548       0.39197131
H        2.68517495      -1.07610761      -1.29861982
H        3.08742862       0.59706135      -0.72254122
16
Frame=11 idx=000673 GeodesicLength=0.6673490419017781 rxn_smarts="[C:1]([C:2]([C:3]([H:11])([H:12])[H:13])([C:4](=[O:5])[C:6]([H:14])([H:15])[H:16])[H:10])([H:7])([H:8])[H:9]>>[C:1]([C:2]([C:3]([H:11])([H:12])[H:13])([O+:5]=[C-:4][C:6]([H:14])([H:15])[H:16])[H:10])([H:7])([H:8])[H:9]"
C       -1.65576710       0.71502463      -0.81096505
C       -0.66699682      -0.15179731      -0.04960421
C       -1.03738663      -0.34078264       1.40885166
C        1.12124856      -0.09153371      -0.35882565
O        0.71058221       1.05526227      -0.06994646
C        2.57464465      -0.35118461      -0.46292176
H       -1.35087620       0.85870669      -1.84765141
H       -1.75725678       1.69484157      -0.34351394
H       -2.63944460       0.23997216      -0.81109576
H       -0.64476579      -1.13471599      -0.53617925
H       -1.01590262       0.61495848       1.93458038
H       -0.36311608      -1.03094968       1.91464862
H       -2.05302462      -0.73541172       1.48817577
H        2.91292146      -0.88662526       0.42820117
H        2.73757367      -1.03914757      -1.29637554
H        3.12756669       0.58338269      -0.58737857
16
Frame=12 idx=000673 GeodesicLength=0.7256958162644513 rxn_smarts="[C:1]([C:2]([C:3]([H:11])([H:12])[H:13])([C:4](=[O:5])[C:6]([H:14])([H:15])[H:16])[H:10])([H:7])([H:8])[H:9]>>[C:1]([C:2]([C:3]([H:11])([H:12])[H:13])([O+:5]=[C-:4][C:6]([H:14])([H:15])[H:16])[H:10])([H:7])([H:8])[H:9]"
C       -1.68026363       0.71070880      -0.80819141
C       -0.66350271      -0.14556875      -0.07155871
C       -0.99927413      -0.33196457       1.39748171
C        1.11215467      -0.06690871      -0.45006217
O        0.70813313       1.06967107      -0.12421990
C        2.56407950      -0.35963968      -0.43269022
H       -1.40745028       0.84889408      -1.85467340
H       -1.77049405       1.69366953      -0.34469656
H       -2.66256565       0.23418416      -0.77614563
H       -0.65604924      -1.13344744      -0.54876574
H       -0.98345725       0.62696284       1.91786126
H       -0.30157721      -1.00717539       1.89221201
H       -2.00464390      -0.74565586       1.50372942
H        2.81642091      -0.95638677       0.44753374
H        2.78133019      -1.00147125      -1.29049729
H        3.14715965       0.56412794      -0.45731711
16
Frame=13 idx=000673 GeodesicLength=0.7833457725743236 rxn_smarts="[C:1]([C:2]([C:3]([H:11])([H:12])[H:13])([C:4](=[O:5])[C:6]([H:14])([H:15])[H:16])[H:10])([H:7])([H:8])[H:9]>>[C:1]([C:2]([C:3]([H:11])([H:12])[H:13])([O+:5]=[C-:4][C:6]([H:14])([H:15])[H:16])[H:10])([H:7])([H:8])[H:9]"
C       -1.69820826       0.70442021      -0.80645968
C       -0.65717652      -0.13977236      -0.08946095
C       -0.96496447      -0.32147361       1.38818270
C        1.10629349      -0.04253247      -0.52720768
O        0.70738732       1.08360716      -0.16948512
C        2.54819880      -0.36804803      -0.40707128
H       -1.45276883       0.83541100      -1.86074684
H       -1.77967571       1.69118034      -0.34924286
H       -2.67820423       0.22637451      -0.74602990
H       -0.66136256      -1.13304185      -0.55549889
H       -0.95819556       0.64101338       1.90231323
H       -0.24597370      -0.98001818       1.87539316
H       -1.95923151      -0.75452028       1.51700328
H        2.72559659      -1.02807593       0.44549002
H        2.81932088      -0.95541073      -1.28848669
H        3.14896427       0.54088683      -0.32869250
16
Frame=14 idx=000673 GeodesicLength=0.8411209145382049 rxn_smarts="[C:1]([C:2]([C:3]([H:11])([H:12])[H:13])([C:4](=[O:5])[C:6]([H:14])([H:15])[H:16])[H:10])([H:7])([H:8])[H:9]>>[C:1]([C:2]([C:3]([H:11])([H:12])[H:13])([O+:5]=[C-:4][C:6]([H:14])([H:15])[H:16])[H:10])([H:7])([H:8])[H:9]"
C       -1.71166889       0.69763359      -0.80508291
C       -0.64887703      -0.13391984      -0.10474008
C       -0.93362811      -0.31094310       1.38003278
C        1.10301174      -0.01762097      -0.59415501
O        0.70806746       1.09783653      -0.20763086
C        2.52900088      -0.37635096      -0.38494267
H       -1.49011430       0.82089968      -1.86571635
H       -1.78640824       1.68828147      -0.35489658
H       -2.68877213       0.21792484      -0.71938933
H       -0.66232026      -1.13250323      -0.55928887
H       -0.93842182       0.65479350       1.88829278
H       -0.19494446      -0.95213927       1.86153526
H       -1.91621684      -0.76360919       1.52790091
H        2.64088378      -1.09406272       0.43102354
H        2.85258730      -0.90929007      -1.28334420
H        3.13782093       0.51306974      -0.20959842
16
Frame=15 idx=000673 GeodesicLength=0.8992065811624774 rxn_smarts="[C:1]([C:2]([C:3]([H:11])([H:12])[H:13])([C:4](=[O:5])[C:6]([H:14])([H:15])[H:16])[H:10])([H:7])([H:8])[H:9]>>[C:1]([C:2]([C:3]([H:11])([H:12])[H:13])([O+:5]=[C-:4][C:6]([H:14])([H:15])[H:16])[H:10])([H:7])([H:8])[H:9]"
C       -1.72179770       0.69081060      -0.80382365
C       -0.63926450      -0.12804412      -0.11817747
C       -0.90468576      -0.30083123       1.37265705
C        1.10160942       0.00746643      -0.65324524
O        0.70983890       1.11206425      -0.24032863
C        2.50761732      -0.38447649      -0.36558765
H       -1.52144264       0.80625031      -1.86968439
H       -1.79121569       1.68522926      -0.36087147
H       -2.69565463       0.20949964      -0.69538045
H       -0.66031599      -1.13167290      -0.56137057
H       -0.92273018       0.66761008       1.87568934
H       -0.14765322      -0.92433635       1.84954887
H       -1.87514806      -0.77312718       1.53681913
H        2.56215708      -1.15281120       0.40878346
H        2.88186241      -0.86558322      -1.27376789
H        3.11682322       0.48195212      -0.10126045
16
Frame=16 idx=000673 GeodesicLength=0.9572361498988443 rxn_smarts="[C:1]([C:2]([C:3]([H:11])([H:12])[H:13])([C:4](=[O:5])[C:6]([H:14])([H:15])[H:16])[H:10])([H:7])([H:8])[H:9]>>[C:1]([C:2]([C:3]([H:11])([H:12])[H:13])([O+:5]=[C-:4][C:6]([H:14])([H:15])[H:16])[H:10])([H:7])([H:8])[H:9]"
C       -1.72924250       0.68378030      -0.80280056
C       -0.62881690      -0.12228031      -0.12984084
C       -0.87805004      -0.29071996       1.36629682
C        1.10161918       0.03225627      -0.70552058
O        0.71253997       1.12596026      -0.26836455
C        2.48489574      -0.39259467      -0.34884050
H       -1.54767266       0.79097034      -1.87302114
H       -1.79441103       1.68200390      -0.36754685
H       -2.69969420       0.20109188      -0.67367486
H       -0.65622440      -1.13084169      -0.56152845
H       -0.91078258       0.68005164       1.86431768
H       -0.10376996      -0.89600410       1.83966829
H       -1.83603756      -0.78248690       1.54459003
H        2.48944518      -1.20687924       0.37879153
H        2.90828772      -0.82210992      -1.26153058
H        3.08791406       0.44780219      -0.00099544
