11
Frame=0 idx=002406 GeodesicLength=0.0 rxn_smarts="[C:1]1([H:6])([H:7])[C@@:2]2([H:8])[C:3]([H:9])([H:10])[O:4][C@@:5]12[H:11]>>[C:1]1([H:6])([H:7])[C:2]([H:8])([H:11])[C:3]([H:9])([H:10])[O+:4]=[C-:5]1"
C       -1.15335677      -0.42299087      -0.21836973
C       -0.09385996       0.05470578       0.70787373
C        1.20577417      -0.09391597      -0.06390814
O        0.70827529       0.48449247      -1.26797106
C       -0.60380866       0.84075300      -0.85518121
H       -2.16927227      -0.32946970       0.14961672
H       -0.95821114      -1.34165127      -0.76034306
H       -0.21121547       0.08735609       1.78577191
H        1.56354830      -1.12340724      -0.17758295
H        2.01768164       0.53106244       0.31512588
H       -0.30555508       1.31306527       0.38496791
11
Frame=1 idx=002406 GeodesicLength=0.048713975334451085 rxn_smarts="[C:1]1([H:6])([H:7])[C@@:2]2([H:8])[C:3]([H:9])([H:10])[O:4][C@@:5]12[H:11]>>[C:1]1([H:6])([H:7])[C:2]([H:8])([H:11])[C:3]([H:9])([H:10])[O+:4]=[C-:5]1"
C       -1.15350210      -0.42274374      -0.21813249
C       -0.09264953       0.05824132       0.70829162
C        1.20762369      -0.09265265      -0.06191145
O        0.70980524       0.48186908      -1.27049182
C       -0.60000864       0.83401553      -0.86147155
H       -2.16994875      -0.32269168       0.14692255
H       -0.96490656      -1.34519570      -0.75634908
H       -0.20632620       0.07129379       1.78660071
H        1.56595303      -1.12153722      -0.17650477
H        2.01977119       0.53321680       0.31463138
H       -0.31581135       1.32618445       0.38841491
11
Frame=2 idx=002406 GeodesicLength=0.09741901861541657 rxn_smarts="[C:1]1([H:6])([H:7])[C@@:2]2([H:8])[C:3]([H:9])([H:10])[O:4][C@@:5]12[H:11]>>[C:1]1([H:6])([H:7])[C:2]([H:8])([H:11])[C:3]([H:9])([H:10])[O+:4]=[C-:5]1"
C       -1.15361756      -0.42246810      -0.21786050
C       -0.09141674       0.06185757       0.70875992
C        1.20949036      -0.09139788      -0.05989090
O        0.71136899       0.47918130      -1.27300631
C       -0.59615597       0.82724928      -0.86767731
H       -2.17056602      -0.31588181       0.14420719
H       -0.97166526      -1.34867235      -0.75228657
H       -0.20131789       0.05506253       1.78713867
H        1.56835781      -1.11968598      -0.17535686
H        2.02188513       0.53536127       0.31413138
H       -0.32636283       1.33939417       0.39184130
11
Frame=3 idx=002406 GeodesicLength=0.14611810464993777 rxn_smarts="[C:1]1([H:6])([H:7])[C@@:2]2([H:8])[C:3]([H:9])([H:10])[O:4][C@@:5]12[H:11]>>[C:1]1([H:6])([H:7])[C:2]([H:8])([H:11])[C:3]([H:9])([H:10])[O+:4]=[C-:5]1"
C       -1.15370204      -0.42216480      -0.21755301
C       -0.09015980       0.06555059       0.70928029
C        1.21137522      -0.09015391      -0.05784666
O        0.71296718       0.47643015      -1.27551224
C       -0.59225042       0.82045252      -0.87379654
H       -2.17112266      -0.30904267       0.14147214
H       -0.97848782      -1.35207889      -0.74815812
H       -0.19619290       0.03867861       1.78737616
H        1.57076343      -1.11785531      -0.17414323
H        2.02402527       0.53749140       0.31362689
H       -0.33721546       1.35269231       0.39525430
11
Frame=4 idx=002406 GeodesicLength=0.19481525572459385 rxn_smarts="[C:1]1([H:6])([H:7])[C@@:2]2([H:8])[C:3]([H:9])([H:10])[O:4][C@@:5]12[H:11]>>[C:1]1([H:6])([H:7])[C:2]([H:8])([H:11])[C:3]([H:9])([H:10])[O+:4]=[C-:5]1"
C       -1.15375452      -0.42183473      -0.21720911
C       -0.08887700       0.06931650       0.70985476
C        1.21327923      -0.08892290      -0.05577875
O        0.71460039       0.47361656      -1.27800720
C       -0.58829178       0.81362340      -0.87982716
H       -2.17161711      -0.30217689       0.13871862
H       -0.98537505      -1.35541294      -0.74396578
H       -0.19095322       0.02215844       1.78730099
H        1.57317070      -1.11604721      -0.17286742
H        2.02619341       0.53960299       0.31311896
H       -0.34837507       1.36607678       0.39866209
11
Frame=5 idx=002406 GeodesicLength=0.2435111107794502 rxn_smarts="[C:1]1([H:6])([H:7])[C@@:2]2([H:8])[C:3]([H:9])([H:10])[O:4][C@@:5]12[H:11]>>[C:1]1([H:6])([H:7])[C:2]([H:8])([H:11])[C:3]([H:9])([H:10])[O+:4]=[C-:5]1"
C       -1.15377390      -0.42147910      -0.21682803
C       -0.08756629       0.07315047       0.71048514
C        1.21520361      -0.08770742      -0.05368742
O        0.71626934       0.47074119      -1.28048902
C       -0.58427947       0.80676113      -0.88576595
H       -2.17204757      -0.29528719       0.13594771
H       -0.99232774      -1.35867211      -0.73971240
H       -0.18560121       0.00552152       1.78690175
H        1.57558072      -1.11426402      -0.17153353
H        2.02839155       0.54169133       0.31260853
H       -0.35984901       1.37954420       0.40207320
11
Frame=6 idx=002406 GeodesicLength=0.2922098628262722 rxn_smarts="[C:1]1([H:6])([H:7])[C@@:2]2([H:8])[C:3]([H:9])([H:10])[O:4][C@@:5]12[H:11]>>[C:1]1([H:6])([H:7])[C:2]([H:8])([H:11])[C:3]([H:9])([H:10])[O+:4]=[C-:5]1"
C       -1.15375933      -0.42109977      -0.21641052
C       -0.08622540       0.07704533       0.71117156
C        1.21714996      -0.08651066      -0.05157410
O        0.71797475       0.46780557      -1.28295592
C       -0.58021327       0.79986378      -0.89161075
H       -2.17241274      -0.28837708       0.13315993
H       -0.99934665      -1.36185435      -0.73540308
H       -0.18014116      -0.01120494       1.78617380
H        1.57799511      -1.11250828      -0.17014765
H        2.03062170       0.54375117       0.31209621
H       -0.37164296       1.39308923       0.40550053
11
Frame=7 idx=002406 GeodesicLength=0.3409126217722287 rxn_smarts="[C:1]1([H:6])([H:7])[C@@:2]2([H:8])[C:3]([H:9])([H:10])[O:4][C@@:5]12[H:11]>>[C:1]1([H:6])([H:7])[C:2]([H:8])([H:11])[C:3]([H:9])([H:10])[O+:4]=[C-:5]1"
C       -1.15370976      -0.42069874      -0.21595614
C       -0.08485178       0.08099290       0.71191562
C        1.21911992      -0.08533622      -0.04943949
O        0.71971694       0.46481187      -1.28540517
C       -0.57609271       0.79293095      -0.89735737
H       -2.17271076      -0.28145026       0.13035656
H       -1.00643236      -1.36495766      -0.73104298
H       -0.17457703      -0.02799397       1.78510847
H        1.58041552      -1.11078331      -0.16871590
H        2.03288614       0.54577682       0.31158331
H       -0.38376412       1.40670761       0.40895310
11
Frame=8 idx=002406 GeodesicLength=0.3896180444898026 rxn_smarts="[C:1]1([H:6])([H:7])[C@@:2]2([H:8])[C:3]([H:9])([H:10])[O:4][C@@:5]12[H:11]>>[C:1]1([H:6])([H:7])[C:2]([H:8])([H:11])[C:3]([H:9])([H:10])[O+:4]=[C-:5]1"
C       -1.15362407      -0.42027843      -0.21546604
C       -0.08344261       0.08498490       0.71271712
C        1.22111566      -0.08418776      -0.04728538
O        0.72149686       0.46176096      -1.28783543
C       -0.57191707       0.78596228      -0.90300254
H       -2.17294041      -0.27451004       0.12753839
H       -1.01358581      -1.36797964      -0.72663843
H       -0.16891369      -0.04481492       1.78370287
H        1.58284408      -1.10909217      -0.16724468
H        2.03518725       0.54776283       0.31107017
H       -0.39622018       1.42039197       0.41244395
11
Frame=9 idx=002406 GeodesicLength=0.43833140360201617 rxn_smarts="[C:1]1([H:6])([H:7])[C@@:2]2([H:8])[C:3]([H:9])([H:10])[O:4][C@@:5]12[H:11]>>[C:1]1([H:6])([H:7])[C:2]([H:8])([H:11])[C:3]([H:9])([H:10])[O+:4]=[C-:5]1"
C       -1.15350132      -0.41984086      -0.21494090
C       -0.08199462       0.08901167       0.71357657
C        1.22313935      -0.08306945      -0.04511364
O        0.72331521       0.45865514      -1.29024486
C       -0.56768539       0.77895638      -0.90854310
H       -2.17309920      -0.26756062       0.12470508
H       -1.02080785      -1.37091859      -0.72219502
H       -0.16315741      -0.06163201       1.78195038
H        1.58528283      -1.10743879      -0.16574170
H        2.03752793       0.54970252       0.31055704
H       -0.40901953       1.43413462       0.41599014
11
Frame=10 idx=002406 GeodesicLength=0.48705045255502066 rxn_smarts="[C:1]1([H:6])([H:7])[C@@:2]2([H:8])[C:3]([H:9])([H:10])[O:4][C@@:5]12[H:11]>>[C:1]1([H:6])([H:7])[C:2]([H:8])([H:11])[C:3]([H:9])([H:10])[O+:4]=[C-:5]1"
C       -1.15334073      -0.41938881      -0.21438322
C       -0.08050471       0.09306282       0.71449207
C        1.22519328      -0.08198562      -0.04292693
O        0.72517293       0.45549590      -1.29263271
C       -0.56339736       0.77191310      -0.91397597
H       -2.17318613      -0.26060555       0.12185709
H       -1.02809912      -1.37377264      -0.71772136
H       -0.15731408      -0.07841041       1.77985703
H        1.58773444      -1.10582648      -0.16421461
H        2.03991053       0.55158995       0.31004396
H       -0.42216906       1.44792774       0.41960465
11
Frame=11 idx=002406 GeodesicLength=0.5357718671756183 rxn_smarts="[C:1]1([H:6])([H:7])[C@@:2]2([H:8])[C:3]([H:9])([H:10])[O:4][C@@:5]12[H:11]>>[C:1]1([H:6])([H:7])[C:2]([H:8])([H:11])[C:3]([H:9])([H:10])[O+:4]=[C-:5]1"
C       -1.15314115      -0.41892516      -0.21379405
C       -0.07896923       0.09712817       0.71546332
C        1.22728041      -0.08094076      -0.04072748
O        0.72707079       0.45228451      -1.29499785
C       -0.55905154       0.76483399      -0.91929744
H       -2.17319952      -0.25364828       0.11899502
H       -1.03546047      -1.37653962      -0.71322488
H       -0.15138989      -0.09511513       1.77742290
H        1.59020128      -1.10425961      -0.16267082
H        2.04233817       0.55341898       0.30953093
H       -0.43567884       1.46176292       0.42330034
11
Frame=12 idx=002406 GeodesicLength=0.5844957188009985 rxn_smarts="[C:1]1([H:6])([H:7])[C@@:2]2([H:8])[C:3]([H:9])([H:10])[O:4][C@@:5]12[H:11]>>[C:1]1([H:6])([H:7])[C:2]([H:8])([H:11])[C:3]([H:9])([H:10])[O+:4]=[C-:5]1"
C       -1.15290172      -0.41845236      -0.21317591
C       -0.07738468       0.10119676       0.71648809
C        1.22940342      -0.07993954      -0.03851837
O        0.72900963       0.44902329      -1.29733982
C       -0.55464727       0.75771829      -0.92450520
H       -2.17313773      -0.24669194       0.11611834
H       -1.04289232      -1.37921813      -0.70871359
H       -0.14539197      -0.11170848       1.77465482
H        1.59268594      -1.10274225      -0.16111873
H        2.04481378       0.55518310       0.30901746
H       -0.44955708       1.47563125       0.42709291
11
Frame=13 idx=002406 GeodesicLength=0.6332197609612066 rxn_smarts="[C:1]1([H:6])([H:7])[C@@:2]2([H:8])[C:3]([H:9])([H:10])[O:4][C@@:5]12[H:11]>>[C:1]1([H:6])([H:7])[C:2]([H:8])([H:11])[C:3]([H:9])([H:10])[O+:4]=[C-:5]1"
C       -1.15262156      -0.41797236      -0.21253100
C       -0.07574721       0.10525901       0.71756399
C        1.23156532      -0.07898652      -0.03630277
O        0.73099085       0.44571263      -1.29965917
C       -0.55018316       0.75056696      -0.92959743
H       -2.17299879      -0.23973912       0.11322644
H       -1.05039537      -1.38180626      -0.70419476
H       -0.13932715      -0.12815600       1.77156021
H        1.59519099      -1.10127869      -0.15956550
H        2.04734054       0.55687653       0.30850229
H       -0.46381447       1.48952381       0.43099770
11
Frame=14 idx=002406 GeodesicLength=0.6819410757886503 rxn_smarts="[C:1]1([H:6])([H:7])[C@@:2]2([H:8])[C:3]([H:9])([H:10])[O:4][C@@:5]12[H:11]>>[C:1]1([H:6])([H:7])[C:2]([H:8])([H:11])[C:3]([H:9])([H:10])[O+:4]=[C-:5]1"
C       -1.15229976      -0.41748788      -0.21186211
C       -0.07405306       0.10930449       0.71868833
C        1.23376916      -0.07808626      -0.03408403
O        0.73301551       0.44235377      -1.30195619
C       -0.54565808       0.74338053      -0.93457267
H       -2.17278152      -0.23279239       0.11031879
H       -1.05797021      -1.38430210      -0.69967671
H       -0.13320245      -0.14442150       1.76814955
H        1.59771910      -1.09987315      -0.15801889
H        2.04992166       0.55849312       0.30798432
H       -0.47846034       1.50343137       0.43502960
11
Frame=15 idx=002406 GeodesicLength=0.7306556906802231 rxn_smarts="[C:1]1([H:6])([H:7])[C@@:2]2([H:8])[C:3]([H:9])([H:10])[O:4][C@@:5]12[H:11]>>[C:1]1([H:6])([H:7])[C:2]([H:8])([H:11])[C:3]([H:9])([H:10])[O+:4]=[C-:5]1"
C       -1.15193532      -0.41700017      -0.21117168
C       -0.07229823       0.11332495       0.71985792
C        1.23601822      -0.07724309      -0.03186552
O        0.73508506       0.43894718      -1.30423206
C       -0.54107040       0.73615971      -0.93943064
H       -2.17248406      -0.22585300       0.10739451
H       -1.06561737      -1.38670358      -0.69516591
H       -0.12702450      -0.16047411       1.76443460
H        1.60027256      -1.09852995      -0.15648539
H        2.05256071       0.56002728       0.30746165
H       -0.49350667       1.51734478       0.43920252
11
Frame=16 idx=002406 GeodesicLength=0.7793622990871867 rxn_smarts="[C:1]1([H:6])([H:7])[C@@:2]2([H:8])[C:3]([H:9])([H:10])[O:4][C@@:5]12[H:11]>>[C:1]1([H:6])([H:7])[C:2]([H:8])([H:11])[C:3]([H:9])([H:10])[O+:4]=[C-:5]1"
C       -1.15152737      -0.41651088      -0.21046263
C       -0.07047878       0.11731160       0.72106913
C        1.23831568      -0.07646137      -0.02965087
O        0.73720098       0.43549328      -1.30648819
C       -0.53641873       0.72890456      -0.94417159
H       -2.17210475      -0.21892192       0.10445246
H       -1.07333736      -1.38900884      -0.69066914
H       -0.12080008      -0.17628282       1.76042906
H        1.60285380      -1.09725337      -0.15497164
H        2.05526104       0.56147373       0.30693232
H       -0.50896445       1.53125602       0.44353108
