13
Frame=0 idx=002098 GeodesicLength=0.0 rxn_smarts="[C:1]([c:2]1[c:3]([H:10])[c:4]([H:11])[c:5]([H:12])[n:6]1[H:13])([H:7])([H:8])[H:9]>>[C:1]([C@@:2]1([H:11])[C:3]([H:10])=[C:4]=[C:5]([H:12])[N:6]1[H:13])([H:7])([H:8])[H:9]"
C        1.74552890       0.10900766      -0.02371553
C        0.25432645       0.07696583       0.03971950
C       -0.73016322       1.14988434      -0.11421678
C       -2.05835330       0.63919478      -0.25926822
C       -1.82198925      -0.71701189      -0.21270391
N       -0.48693572      -1.05140189      -0.04045618
H        2.20063851      -0.65368239       0.61006695
H        2.07673048      -0.05131800      -1.05144721
H        2.11417300       1.08242300       0.29802629
H       -0.40600113       2.18531086      -0.14084918
H       -0.24081374       0.74283615       1.04155444
H       -2.52790326      -1.53740516      -0.26474781
H       -0.11923767      -1.97480333       0.11803759
13
Frame=1 idx=002098 GeodesicLength=0.10433893713737688 rxn_smarts="[C:1]([c:2]1[c:3]([H:10])[c:4]([H:11])[c:5]([H:12])[n:6]1[H:13])([H:7])([H:8])[H:9]>>[C:1]([C@@:2]1([H:11])[C:3]([H:10])=[C:4]=[C:5]([H:12])[N:6]1[H:13])([H:7])([H:8])[H:9]"
C        1.74579681       0.10905914      -0.01920402
C        0.25467959       0.07867311       0.05268780
C       -0.72045225       1.15054746      -0.14290875
C       -2.05257278       0.64041147      -0.20990676
C       -1.81618335      -0.71830144      -0.22572267
N       -0.48378915      -1.05328561      -0.05541713
H        2.20244574      -0.65051378       0.61736042
H        2.07475147      -0.05862015      -1.04661087
H        2.11666347       1.08453104       0.29359633
H       -0.39871735       2.18660498      -0.16580150
H       -0.27851449       0.74469786       1.06351967
H       -2.52741803      -1.53529304      -0.25435758
H       -0.11668968      -1.97851104       0.09276505
13
Frame=2 idx=002098 GeodesicLength=0.20855162722854487 rxn_smarts="[C:1]([c:2]1[c:3]([H:10])[c:4]([H:11])[c:5]([H:12])[n:6]1[H:13])([H:7])([H:8])[H:9]>>[C:1]([C@@:2]1([H:11])[C:3]([H:10])=[C:4]=[C:5]([H:12])[N:6]1[H:13])([H:7])([H:8])[H:9]"
C        1.74569606       0.10915830      -0.01577122
C        0.25474943       0.08052798       0.06696565
C       -0.71128374       1.15055224      -0.16788796
C       -2.04329929       0.64105423      -0.16978168
C       -1.81072738      -0.71891610      -0.23556029
N       -0.48074814      -1.05482212      -0.06825352
H        2.20485505      -0.64735076       0.62277095
H        2.07079221      -0.06562998      -1.04333258
H        2.11923471       1.08655822       0.28764733
H       -0.39179384       2.18720611      -0.18786837
H       -0.31682944       0.74603977       1.08713134
H       -2.52632349      -1.53268189      -0.24622728
H       -0.11432214      -1.98169600       0.07016763
13
Frame=3 idx=002098 GeodesicLength=0.31271971476698396 rxn_smarts="[C:1]([c:2]1[c:3]([H:10])[c:4]([H:11])[c:5]([H:12])[n:6]1[H:13])([H:7])([H:8])[H:9]>>[C:1]([C@@:2]1([H:11])[C:3]([H:10])=[C:4]=[C:5]([H:12])[N:6]1[H:13])([H:7])([H:8])[H:9]"
C        1.74533740       0.10928377      -0.01320935
C        0.25463366       0.08255448       0.08201013
C       -0.70233111       1.15014366      -0.19004936
C       -2.03188548       0.64155097      -0.13718370
C       -1.80540736      -0.71915220      -0.24330336
N       -0.47768780      -1.05601670      -0.07953016
H        2.20769279      -0.64417173       0.62674697
H        2.06547457      -0.07244282      -1.04121760
H        2.12190760       1.08846167       0.28052845
H       -0.38499704       2.18738441      -0.20732724
H       -0.35593506       0.74656488       1.11195831
H       -2.52480360      -1.52978100      -0.23915038
H       -0.11199857      -1.98437940       0.04972730
13
Frame=4 idx=002098 GeodesicLength=0.41696911170946577 rxn_smarts="[C:1]([c:2]1[c:3]([H:10])[c:4]([H:11])[c:5]([H:12])[n:6]1[H:13])([H:7])([H:8])[H:9]>>[C:1]([C@@:2]1([H:11])[C:3]([H:10])=[C:4]=[C:5]([H:12])[N:6]1[H:13])([H:7])([H:8])[H:9]"
C        1.74479677       0.10941427      -0.01139621
C        0.25439757       0.08478197       0.09747766
C       -0.69340864       1.14947542      -0.21004841
C       -2.01914840       0.64209816      -0.11046405
C       -1.80008426      -0.71915230      -0.24975016
N       -0.47454332      -1.05687908      -0.08949947
H        2.21085959      -0.64093871       0.62961969
H        2.05919440      -0.07920449      -1.04002392
H        2.12470010       1.09022782       0.27237996
H       -0.37822618       2.18731507      -0.22450407
H       -0.39593666       0.74613705       1.13772660
H       -2.52293874      -1.52669536      -0.23273499
H       -0.10966222      -1.98657981       0.03121737
13
Frame=5 idx=002098 GeodesicLength=0.5214301027857994 rxn_smarts="[C:1]([c:2]1[c:3]([H:10])[c:4]([H:11])[c:5]([H:12])[n:6]1[H:13])([H:7])([H:8])[H:9]>>[C:1]([C@@:2]1([H:11])[C:3]([H:10])=[C:4]=[C:5]([H:12])[N:6]1[H:13])([H:7])([H:8])[H:9]"
C        1.74411893       0.10953989      -0.01027677
C        0.25408716       0.08723929       0.11311231
C       -0.68442016       1.14863584      -0.22835623
C       -2.00557176       0.64277892      -0.08816126
C       -1.79467873      -0.71899559      -0.25533189
N       -0.47129014      -1.05743318      -0.09821787
H        2.21428315      -0.63758430       0.63162440
H        2.05219671      -0.08606969      -1.03960398
H        2.12761192       1.09186939       0.26320078
H       -0.37144339       2.18710782      -0.23971968
H       -0.43690335       0.74465426       1.16426061
H       -2.52068642      -1.52338302      -0.22716762
H       -0.10730392      -1.98835962       0.01463721
13
Frame=6 idx=002098 GeodesicLength=0.6261394022003688 rxn_smarts="[C:1]([c:2]1[c:3]([H:10])[c:4]([H:11])[c:5]([H:12])[n:6]1[H:13])([H:7])([H:8])[H:9]>>[C:1]([C@@:2]1([H:11])[C:3]([H:10])=[C:4]=[C:5]([H:12])[N:6]1[H:13])([H:7])([H:8])[H:9]"
C        1.74335099       0.10966052      -0.00976866
C        0.25375561       0.08995376       0.12874948
C       -0.67529951       1.14769320      -0.24534045
C       -1.99143408       0.64364333      -0.06932072
C       -1.78914476      -0.71868837      -0.26033636
N       -0.46791415      -1.05769676      -0.10582115
H        2.21790475      -0.63407951       0.63294410
H        2.04469014      -0.09310203      -1.03980112
H        2.13064422       1.09339069       0.25307209
H       -0.36462317       2.18682325      -0.25328104
H       -0.47887596       0.74203638       1.19144683
H       -2.51814739      -1.51990384      -0.22231067
H       -0.10490668      -1.98973063      -0.00023235
13
Frame=7 idx=002098 GeodesicLength=0.7310921345075261 rxn_smarts="[C:1]([c:2]1[c:3]([H:10])[c:4]([H:11])[c:5]([H:12])[n:6]1[H:13])([H:7])([H:8])[H:9]>>[C:1]([C@@:2]1([H:11])[C:3]([H:10])=[C:4]=[C:5]([H:12])[N:6]1[H:13])([H:7])([H:8])[H:9]"
C        1.74252515       0.10978350      -0.00980573
C        0.25344375       0.09295029       0.14423961
C       -0.66601992       1.14669264      -0.26129647
C       -1.97691424       0.64473484      -0.05309330
C       -1.78346824      -0.71822544      -0.26490374
N       -0.46441602      -1.05768321      -0.11241137
H        2.22166769      -0.63039404       0.63373006
H        2.03684098      -0.10034354      -1.04048793
H        2.13378595       1.09480279       0.24206140
H       -0.35773675       2.18651016      -0.26552277
H       -0.52188719       0.73816168       1.21919588
H       -2.51535568      -1.51626142      -0.21815359
H       -0.10246548      -1.99072825      -0.01355205
13
Frame=8 idx=002098 GeodesicLength=0.8362463702593306 rxn_smarts="[C:1]([c:2]1[c:3]([H:10])[c:4]([H:11])[c:5]([H:12])[n:6]1[H:13])([H:7])([H:8])[H:9]>>[C:1]([C@@:2]1([H:11])[C:3]([H:10])=[C:4]=[C:5]([H:12])[N:6]1[H:13])([H:7])([H:8])[H:9]"
C        1.74167727       0.10991614      -0.01033362
C        0.25319363       0.09624425       0.15943918
C       -0.65657129       1.14566330      -0.27646243
C       -1.96210109       0.64606444      -0.03886813
C       -1.77764583      -0.71758870      -0.26912052
N       -0.46079999      -1.05741439      -0.11808100
H        2.22552908      -0.62650357       0.63410757
H        2.02880259      -0.10782224      -1.04155916
H        2.13702622       1.09611492       0.23023456
H       -0.35078794       2.18619049      -0.27668591
H       -0.56599162       0.73293103       1.24743300
H       -2.51235482      -1.51241731      -0.21461213
H       -0.09997623      -1.99137837      -0.02549142
13
Frame=9 idx=002098 GeodesicLength=0.9407635745524067 rxn_smarts="[C:1]([c:2]1[c:3]([H:10])[c:4]([H:11])[c:5]([H:12])[n:6]1[H:13])([H:7])([H:8])[H:9]>>[C:1]([C@@:2]1([H:11])[C:3]([H:10])=[C:4]=[C:5]([H:12])[N:6]1[H:13])([H:7])([H:8])[H:9]"
C        1.74085592       0.11003139      -0.01129283
C        0.25305880       0.09977845       0.17440337
C       -0.64698560       1.14463987      -0.29061112
C       -1.94689447       0.64750320      -0.02611993
C       -1.77165183      -0.71675458      -0.27311472
N       -0.45705346      -1.05689285      -0.12297977
H        2.22952359      -0.62249140       0.63407400
H        2.02060235      -0.11548276      -1.04296874
H        2.14041159       1.09728189       0.21770246
H       -0.34375682       2.18589179      -0.28701064
H       -0.61143118       0.72667477       1.27570505
H       -2.50923097      -1.50846000      -0.21160935
H       -0.09744792      -1.99171977      -0.03617781
13
Frame=10 idx=002098 GeodesicLength=1.045459394663229 rxn_smarts="[C:1]([c:2]1[c:3]([H:10])[c:4]([H:11])[c:5]([H:12])[n:6]1[H:13])([H:7])([H:8])[H:9]>>[C:1]([C@@:2]1([H:11])[C:3]([H:10])=[C:4]=[C:5]([H:12])[N:6]1[H:13])([H:7])([H:8])[H:9]"
C        1.74007489       0.11017615      -0.01264942
C        0.25304285       0.10365095       0.18890967
C       -0.63722989       1.14362418      -0.30435681
C       -1.93147294       0.64922038      -0.01439590
C       -1.76552568      -0.71571227      -0.27678506
N       -0.45320082      -1.05612962      -0.12712475
H        2.23356732      -0.61823981       0.63381393
H        2.01242275      -0.12340564      -1.04460360
H        2.14389834       1.09836885       0.20445990
H       -0.33664596       2.18562089      -0.29674883
H       -0.65807651       0.71883308       1.30439506
H       -2.50597291      -1.50425083      -0.20916301
H       -0.09488146      -1.99175630      -0.04575118
13
Frame=11 idx=002098 GeodesicLength=1.1503644667535005 rxn_smarts="[C:1]([c:2]1[c:3]([H:10])[c:4]([H:11])[c:5]([H:12])[n:6]1[H:13])([H:7])([H:8])[H:9]>>[C:1]([C@@:2]1([H:11])[C:3]([H:10])=[C:4]=[C:5]([H:12])[N:6]1[H:13])([H:7])([H:8])[H:9]"
C        1.73935774       0.11036663      -0.01437847
C        0.25317828       0.10789019       0.20290089
C       -0.62730926       1.14262036      -0.31787273
C       -1.91578825       0.65123770      -0.00328276
C       -1.75927445      -0.71440691      -0.28013798
N       -0.44925071      -1.05512098      -0.13058117
H        2.23764666      -0.61371952       0.63338922
H        2.00433360      -0.13160485      -1.04641079
H        2.14747792       1.09939274       0.19052150
H       -0.32944212       2.18537501      -0.30613735
H       -0.70604155       0.70921174       1.33353522
H       -2.50259927      -1.49973546      -0.20729075
H       -0.09228859      -1.99150665      -0.05425485
13
Frame=12 idx=002098 GeodesicLength=1.2553937766204404 rxn_smarts="[C:1]([c:2]1[c:3]([H:10])[c:4]([H:11])[c:5]([H:12])[n:6]1[H:13])([H:7])([H:8])[H:9]>>[C:1]([C@@:2]1([H:11])[C:3]([H:10])=[C:4]=[C:5]([H:12])[N:6]1[H:13])([H:7])([H:8])[H:9]"
C        1.73873708       0.11061758      -0.01645240
C        0.25349423       0.11252925       0.21635986
C       -0.61723012       1.14163095      -0.33127595
C       -1.89977036       0.65356629       0.00750443
C       -1.75290234      -0.71279467      -0.28316053
N       -0.44520827      -1.05386207      -0.13339269
H        2.24176734      -0.60891341       0.63284503
H        1.99638365      -0.14008333      -1.04834731
H        2.15117002       1.10036601       0.17590466
H       -0.32213512       2.18515553      -0.31539702
H       -0.75547903       0.69761260       1.36313075
H       -2.49914523      -1.49485092      -0.20594491
H       -0.08968184      -1.99097382      -0.06177391
13
Frame=13 idx=002098 GeodesicLength=1.3604583084196746 rxn_smarts="[C:1]([c:2]1[c:3]([H:10])[c:4]([H:11])[c:5]([H:12])[n:6]1[H:13])([H:7])([H:8])[H:9]>>[C:1]([C@@:2]1([H:11])[C:3]([H:10])=[C:4]=[C:5]([H:12])[N:6]1[H:13])([H:7])([H:8])[H:9]"
C        1.73824305       0.11093819      -0.01885926
C        0.25402979       0.11758902       0.22926908
C       -0.60700130       1.14065389      -0.34464874
C       -1.88334291       0.65622866       0.01829536
C       -1.74641038      -0.71082388      -0.28583953
N       -0.44107927      -1.05234640      -0.13558435
H        2.24594451      -0.60380600       0.63220663
H        1.98861397      -0.14884513      -1.05038733
H        2.15498132       1.10129160       0.16061561
H       -0.31470328       2.18495330      -0.32474027
H       -0.80657538       0.68387363       1.39315733
H       -2.49562744      -1.48954669      -0.20515053
H       -0.08707268      -1.99016019      -0.06833399
13
Frame=14 idx=002098 GeodesicLength=1.465525188656171 rxn_smarts="[C:1]([c:2]1[c:3]([H:10])[c:4]([H:11])[c:5]([H:12])[n:6]1[H:13])([H:7])([H:8])[H:9]>>[C:1]([C@@:2]1([H:11])[C:3]([H:10])=[C:4]=[C:5]([H:12])[N:6]1[H:13])([H:7])([H:8])[H:9]"
C        1.73791981       0.11134462      -0.02158715
C        0.25482436       0.12310646       0.24162729
C       -0.59662001       1.13968793      -0.35808436
C       -1.86640909       0.65924058       0.02933781
C       -1.73979044      -0.70842691      -0.28818807
N       -0.43686069      -1.05055431      -0.13718930
H        2.25020641      -0.59837900       0.63149484
H        1.98106272      -0.15789198      -1.05250854
H        2.15895301       1.10218191       0.14465142
H       -0.30712466       2.18476430      -0.33436220
H       -0.85958878       0.66774520       1.42360309
H       -2.49209745      -1.48374965      -0.20482721
H       -0.08447519      -1.98906915      -0.07396763
13
Frame=15 idx=002098 GeodesicLength=1.570493124333287 rxn_smarts="[C:1]([c:2]1[c:3]([H:10])[c:4]([H:11])[c:5]([H:12])[n:6]1[H:13])([H:7])([H:8])[H:9]>>[C:1]([C@@:2]1([H:11])[C:3]([H:10])=[C:4]=[C:5]([H:12])[N:6]1[H:13])([H:7])([H:8])[H:9]"
C        1.73780657       0.11184358      -0.02464305
C        0.25592783       0.12911344       0.25345684
C       -0.58608939       1.13872849      -0.37161853
C       -1.84887256       0.66261985       0.04089750
C       -1.73302870      -0.70554432      -0.29018679
N       -0.43255099      -1.04847492      -0.13816836
H        2.25459835      -0.59261548       0.63070327
H        1.97373667      -0.16723971      -1.05470987
H        2.16311947       1.10303541       0.12797380
H       -0.29937579       2.18458030      -0.34443298
H       -0.91480395       0.64902908       1.45440702
H       -2.48856718      -1.47738044      -0.20501994
H       -0.08190032      -1.98769529      -0.07865891
13
Frame=16 idx=002098 GeodesicLength=1.6752773237074976 rxn_smarts="[C:1]([c:2]1[c:3]([H:10])[c:4]([H:11])[c:5]([H:12])[n:6]1[H:13])([H:7])([H:8])[H:9]>>[C:1]([C@@:2]1([H:11])[C:3]([H:10])=[C:4]=[C:5]([H:12])[N:6]1[H:13])([H:7])([H:8])[H:9]"
C        1.73795301       0.11243716      -0.02804844
C        0.25740738       0.13563552       0.26480043
C       -0.57540649       1.13777026      -0.38523292
C       -1.83061888       0.66637252       0.05325393
C       -1.72609972      -0.70211399      -0.29182277
N       -0.42813647      -1.04609640      -0.13846549
H        2.25919126      -0.58650702       0.62979355
H        1.96662840      -0.17690149      -1.05701028
H        2.16753275       1.10384403       0.11052515
H       -0.29142739       2.18439427      -0.35507905
H       -0.97260623       0.62757460       1.48542548
H       -2.48506129      -1.47036791      -0.20578321
H       -0.07935632      -1.98604154      -0.08235638
