18
Frame=0 idx=002227 GeodesicLength=0.0 rxn_smarts="[C:1]([O:2][C:3]([C:4]([C:5]([H:13])([H:14])[H:15])([C:6]([H:16])([H:17])[H:18])[H:12])([H:10])[H:11])([H:7])([H:8])[H:9]>>[C-:1]([O+:2]=[C:3]([C:4]([C:5]([H:13])([H:14])[H:15])([C:6]([H:16])([H:17])[H:18])[H:12])[H:11])([H:8])[H:9].[H:7][H:10]"
C        2.72928072       0.42653127       0.25350501
O        1.46629366       0.68675268      -0.00891395
C        0.50482234      -0.17613688       0.10722951
C       -0.86656953       0.26585180      -0.29160697
C       -1.53722370       1.08660672       0.81766239
C       -1.71706024      -0.94591367      -0.66594550
H        2.44914573      -1.05019765      -0.95424302
H        2.94848559      -0.29021354       1.03599275
H        3.38777384       1.25889812       0.05997615
H        1.69188712      -1.30189345      -1.04120900
H        0.63913162      -0.97824594       0.83013615
H       -0.75751529       0.90545952      -1.17301848
H       -0.94133765       1.96502068       1.07049735
H       -2.52789085       1.42496915       0.50483731
H       -1.65715107       0.48710475       1.72416649
H       -1.27584114      -1.49685262      -1.49744725
H       -1.81243816      -1.63128078       0.18095555
H       -2.72379300      -0.63646019      -0.95257445
18
Frame=1 idx=002227 GeodesicLength=0.09329876708581002 rxn_smarts="[C:1]([O:2][C:3]([C:4]([C:5]([H:13])([H:14])[H:15])([C:6]([H:16])([H:17])[H:18])[H:12])([H:10])[H:11])([H:7])([H:8])[H:9]>>[C-:1]([O+:2]=[C:3]([C:4]([C:5]([H:13])([H:14])[H:15])([C:6]([H:16])([H:17])[H:18])[H:12])[H:11])([H:8])[H:9].[H:7][H:10]"
C        2.73388520       0.41938946       0.24050319
O        1.46432298       0.69270853       0.01232728
C        0.50543377      -0.18042612       0.10660166
C       -0.86539284       0.26588575      -0.29157640
C       -1.53842852       1.07941868       0.82121632
C       -1.71535753      -0.94285903      -0.67647667
H        2.44662259      -1.04433543      -0.93054752
H        2.96542385      -0.26443797       1.04843631
H        3.39446615       1.23817846      -0.00094723
H        1.66957335      -1.29915034      -1.00873345
H        0.63162701      -0.97195454       0.84332708
H       -0.75307269       0.91142728      -1.16828294
H       -0.94143960       1.95432406       1.08325914
H       -2.52741993       1.42199367       0.50776715
H       -1.66277332       0.47315134       1.72266108
H       -1.27304318      -1.48780815      -1.51142095
H       -1.81305243      -1.63431469       0.16520273
H       -2.72137485      -0.63119095      -0.96331678
18
Frame=2 idx=002227 GeodesicLength=0.1868876960414469 rxn_smarts="[C:1]([O:2][C:3]([C:4]([C:5]([H:13])([H:14])[H:15])([C:6]([H:16])([H:17])[H:18])[H:12])([H:10])[H:11])([H:7])([H:8])[H:9]>>[C-:1]([O+:2]=[C:3]([C:4]([C:5]([H:13])([H:14])[H:15])([C:6]([H:16])([H:17])[H:18])[H:12])[H:11])([H:8])[H:9].[H:7][H:10]"
C        2.73790112       0.41239174       0.22796799
O        1.46256422       0.69762392       0.03344912
C        0.50604980      -0.18491203       0.10651659
C       -0.86403828       0.26585467      -0.29141269
C       -1.53942991       1.07253077       0.82459486
C       -1.71363564      -0.93970688      -0.68672887
H        2.44508752      -1.03871618      -0.90742817
H        2.98381861      -0.23819206       1.05874432
H        3.39756564       1.21773447      -0.05942128
H        1.64741995      -1.29681238      -0.97703692
H        0.62404046      -0.96627751       0.85617774
H       -0.74819451       0.91708278      -1.16348579
H       -0.94120743       1.94377063       1.09570671
H       -2.52662377       1.41946702       0.51036427
H       -1.66845192       0.45975376       1.72101753
H       -1.27012618      -1.47892725      -1.52483938
H       -1.81392207      -1.63699840       0.14982420
H       -2.71881764      -0.62566707      -0.97401024
18
Frame=3 idx=002227 GeodesicLength=0.2807594722885448 rxn_smarts="[C:1]([O:2][C:3]([C:4]([C:5]([H:13])([H:14])[H:15])([C:6]([H:16])([H:17])[H:18])[H:12])([H:10])[H:11])([H:7])([H:8])[H:9]>>[C-:1]([O+:2]=[C:3]([C:4]([C:5]([H:13])([H:14])[H:15])([C:6]([H:16])([H:17])[H:18])[H:12])[H:11])([H:8])[H:9].[H:7][H:10]"
C        2.74135417       0.40556359       0.21592189
O        1.46101013       0.70153855       0.05439036
C        0.50665795      -0.18960444       0.10691608
C       -0.86252366       0.26576103      -0.29113034
C       -1.54022823       1.06591127       0.82782355
C       -1.71190844      -0.93645042      -0.69673538
H        2.44462650      -1.03344775      -0.88464252
H        3.00348785      -0.21142129       1.06709004
H        3.39731718       1.19761764      -0.11567619
H        1.62538290      -1.29484368      -0.94618325
H        0.61636603      -0.96121218       0.86869491
H       -0.74292215       0.92245517      -1.15862650
H       -0.94064207       1.93332367       1.10788389
H       -2.52550714       1.41736296       0.51268257
H       -1.67417057       0.44685364       1.71924634
H       -1.26711939      -1.47017628      -1.53776604
H       -1.81504008      -1.63935317       0.13476865
H       -2.71614099      -0.61987832      -0.98465807
18
Frame=4 idx=002227 GeodesicLength=0.37486892297960234 rxn_smarts="[C:1]([O:2][C:3]([C:4]([C:5]([H:13])([H:14])[H:15])([C:6]([H:16])([H:17])[H:18])[H:12])([H:10])[H:11])([H:7])([H:8])[H:9]>>[C-:1]([O+:2]=[C:3]([C:4]([C:5]([H:13])([H:14])[H:15])([C:6]([H:16])([H:17])[H:18])[H:12])[H:11])([H:8])[H:9].[H:7][H:10]"
C        2.74427857       0.39890688       0.20438120
O        1.45965460       0.70450225       0.07503540
C        0.50724965      -0.19451428       0.10770569
C       -0.86087091       0.26560006      -0.29075716
C       -1.54080522       1.05953956       0.83091825
C       -1.71020527      -0.93309646      -0.70650480
H        2.44535659      -1.02869881      -0.86195748
H        3.02422944      -0.18406745       1.07364612
H        3.39393852       1.17790912      -0.16973575
H        1.60340648      -1.29314002      -0.91633413
H        0.60861478      -0.95675307       0.88083197
H       -0.73731814       0.92755249      -1.15373121
H       -0.93972386       1.92296640       1.11979124
H       -2.52406450       1.41565542       0.51478396
H       -1.67986946       0.43442033       1.71736405
H       -1.26408615      -1.46155219      -1.55023842
H       -1.81640061      -1.64139809       0.12002480
H       -2.71338449      -0.61383213      -0.99522374
18
Frame=5 idx=002227 GeodesicLength=0.4689219089353466 rxn_smarts="[C:1]([O:2][C:3]([C:4]([C:5]([H:13])([H:14])[H:15])([C:6]([H:16])([H:17])[H:18])[H:12])([H:10])[H:11])([H:7])([H:8])[H:9]>>[C-:1]([O+:2]=[C:3]([C:4]([C:5]([H:13])([H:14])[H:15])([C:6]([H:16])([H:17])[H:18])[H:12])[H:11])([H:8])[H:9].[H:7][H:10]"
C        2.74671079       0.39244089       0.19332897
O        1.45848309       0.70656238       0.09536842
C        0.50781523      -0.19964151       0.10883653
C       -0.85909666       0.26537626      -0.29030227
C       -1.54116996       1.05338142       0.83390831
C       -1.70853615      -0.92963942      -0.71607129
H        2.44728095      -1.02452497      -0.83908640
H        3.04586248      -0.15597953       1.07855943
H        3.38771754       1.15850913      -0.22184934
H        1.58148891      -1.29165380      -0.88757314
H        0.60078659      -0.95290407       0.89258435
H       -0.73141861       0.93240744      -1.14879245
H       -0.93846796       1.91266365       1.13147803
H       -2.52230953       1.41431153       0.51672234
H       -1.68554190       0.42239285       1.71538414
H       -1.26104431      -1.45302357      -1.56231951
H       -1.81799759      -1.64315568       0.10553973
H       -2.71056292      -0.60752300      -1.00571585
18
Frame=6 idx=002227 GeodesicLength=0.5629444670105685 rxn_smarts="[C:1]([O:2][C:3]([C:4]([C:5]([H:13])([H:14])[H:15])([C:6]([H:16])([H:17])[H:18])[H:12])([H:10])[H:11])([H:7])([H:8])[H:9]>>[C-:1]([O+:2]=[C:3]([C:4]([C:5]([H:13])([H:14])[H:15])([C:6]([H:16])([H:17])[H:18])[H:12])[H:11])([H:8])[H:9].[H:7][H:10]"
C        2.74868338       0.38616052       0.18280996
O        1.45748602       0.70778807       0.11522415
C        0.50835034      -0.20499009       0.11017154
C       -0.85723036       0.26508540      -0.28980313
C       -1.54129366       1.04741236       0.83681327
C       -1.70694484      -0.92608791      -0.72543415
H        2.45057236      -1.02115838      -0.81571880
H        3.06815257      -0.12699019       1.08202798
H        3.37888494       1.13939637      -0.27198669
H        1.55956140      -1.29022177      -0.86015313
H        0.59291395      -0.94965547       0.90384436
H       -0.72531570       0.93703020      -1.14384824
H       -0.93684173       1.90239917       1.14293483
H       -2.52023602       1.41329605       0.51858560
H       -1.69109326       0.41073438       1.71333081
H       -1.25808907      -1.44458673      -1.57404607
H       -1.81982043      -1.64464778       0.09131328
H       -2.70773989      -0.60096421      -1.01606559
18
Frame=7 idx=002227 GeodesicLength=0.6566771173033448 rxn_smarts="[C:1]([O:2][C:3]([C:4]([C:5]([H:13])([H:14])[H:15])([C:6]([H:16])([H:17])[H:18])[H:12])([H:10])[H:11])([H:7])([H:8])[H:9]>>[C-:1]([O+:2]=[C:3]([C:4]([C:5]([H:13])([H:14])[H:15])([C:6]([H:16])([H:17])[H:18])[H:12])[H:11])([H:8])[H:9].[H:7][H:10]"
C        2.75025243       0.38006473       0.17281240
O        1.45663882       0.70825451       0.13455135
C        0.50884752      -0.21054231       0.11163303
C       -0.85529831       0.26473592      -0.28927432
C       -1.54118460       1.04159326       0.83966842
C       -1.70544984      -0.92243524      -0.73462183
H        2.45525170      -1.01871038      -0.79148505
H        3.09090705      -0.09686474       1.08419963
H        3.36775543       1.12037900      -0.32035213
H        1.53762400      -1.28875163      -0.83423217
H        0.58501348      -0.94700197       0.91455862
H       -0.71907371       0.94145778      -1.13889795
H       -0.93486376       1.89213784       1.15420542
H       -2.51786629       1.41255939       0.52045061
H       -1.69649437       0.39937843       1.71122648
H       -1.25525980      -1.43620245      -1.58548264
H       -1.82185401      -1.64589475       0.07729863
H       -2.70494575      -0.59415738      -1.02625850
18
Frame=8 idx=002227 GeodesicLength=0.7499634576546106 rxn_smarts="[C:1]([O:2][C:3]([C:4]([C:5]([H:13])([H:14])[H:15])([C:6]([H:16])([H:17])[H:18])[H:12])([H:10])[H:11])([H:7])([H:8])[H:9]>>[C-:1]([O+:2]=[C:3]([C:4]([C:5]([H:13])([H:14])[H:15])([C:6]([H:16])([H:17])[H:18])[H:12])[H:11])([H:8])[H:9].[H:7][H:10]"
C        2.75144273       0.37417605       0.16337859
O        1.45592452       0.70803205       0.15320616
C        0.50930406      -0.21628986       0.11308249
C       -0.85333439       0.26433010      -0.28875005
C       -1.54082337       1.03588661       0.84250533
C       -1.70409663      -0.91867912      -0.74364742
H        2.46139760      -1.01738855      -0.76598513
H        3.11393468      -0.06531556       1.08523872
H        3.35462410       1.10127816      -0.36698148
H        1.51565154      -1.28710450      -0.81005852
H        0.57712742      -0.94494179       0.92461057
H       -0.71279277       0.94571638      -1.13396953
H       -0.93251461       1.88184939       1.16530339
H       -2.51520632       1.41205231       0.52241864
H       -1.70165898       0.38826670       1.70910033
H       -1.25264880      -1.42784298      -1.59668764
H       -1.82408415      -1.64691722       0.06347275
H       -2.70224662      -0.58710817      -1.03623721
18
Frame=9 idx=002227 GeodesicLength=0.8429768619005165 rxn_smarts="[C:1]([O:2][C:3]([C:4]([C:5]([H:13])([H:14])[H:15])([C:6]([H:16])([H:17])[H:18])[H:12])([H:10])[H:11])([H:7])([H:8])[H:9]>>[C-:1]([O+:2]=[C:3]([C:4]([C:5]([H:13])([H:14])[H:15])([C:6]([H:16])([H:17])[H:18])[H:12])[H:11])([H:8])[H:9].[H:7][H:10]"
C        2.75231128       0.36852559       0.15438538
O        1.45526724       0.70725100       0.17138726
C        0.50969855      -0.22217296       0.11458822
C       -0.85136146       0.26390031      -0.28818872
C       -1.54032018       1.03023598       0.84537235
C       -1.70284466      -0.91480502      -0.75257391
H        2.46893467      -1.01688432      -0.73875452
H        3.13712606      -0.03214910       1.08486282
H        3.34007053       1.08140368      -0.41237418
H        1.49365840      -1.28522517      -0.78753350
H        0.56922099      -0.94343574       0.93408176
H       -0.70647984       0.94989616      -1.12897506
H       -0.92995339       1.87148709       1.17635671
H       -2.51236160       1.41170158       0.52451030
H       -1.70671937       0.37728189       1.70695569
H       -1.25016116      -1.41943101      -1.60773738
H       -1.82648112      -1.64775824       0.04972401
H       -2.69960492      -0.57982172      -1.04608721
18
Frame=10 idx=002227 GeodesicLength=0.9356100387455509 rxn_smarts="[C:1]([O:2][C:3]([C:4]([C:5]([H:13])([H:14])[H:15])([C:6]([H:16])([H:17])[H:18])[H:12])([H:10])[H:11])([H:7])([H:8])[H:9]>>[C-:1]([O+:2]=[C:3]([C:4]([C:5]([H:13])([H:14])[H:15])([C:6]([H:16])([H:17])[H:18])[H:12])[H:11])([H:8])[H:9].[H:7][H:10]"
C        2.75290460       0.36304283       0.14596783
O        1.45470634       0.70592336       0.18878359
C        0.51005244      -0.22822000       0.11590483
C       -0.84939964       0.26343426      -0.28766749
C       -1.53956278       1.02462340       0.84828264
C       -1.70177994      -0.91080417      -0.76138924
H        2.47802046      -1.01767009      -0.70939750
H        3.16031081       0.00291068       1.08338134
H        3.32392938       1.06101583      -0.45627674
H        1.47160871      -1.28301273      -0.76704327
H        0.56137907      -0.94251533       0.94275191
H       -0.70025201       0.95398654      -1.12400709
H       -0.92702983       1.86103029       1.18730748
H       -2.50925715       1.41148919       0.52685627
H       -1.71145936       0.36640935       1.70482677
H       -1.24799043      -1.41095423      -1.61867719
H       -1.82904783      -1.64840766       0.03607593
H       -2.69713284      -0.57228151      -1.05568005
18
Frame=11 idx=002227 GeodesicLength=1.027946237854799 rxn_smarts="[C:1]([O:2][C:3]([C:4]([C:5]([H:13])([H:14])[H:15])([C:6]([H:16])([H:17])[H:18])[H:12])([H:10])[H:11])([H:7])([H:8])[H:9]>>[C-:1]([O+:2]=[C:3]([C:4]([C:5]([H:13])([H:14])[H:15])([C:6]([H:16])([H:17])[H:18])[H:12])[H:11])([H:8])[H:9].[H:7][H:10]"
C        2.75327228       0.35773363       0.13816130
O        1.45422242       0.70412732       0.20533283
C        0.51036989      -0.23440096       0.11693943
C       -0.84747020       0.26294651      -0.28720448
C       -1.53854769       1.01900944       0.85126638
C       -1.70092191      -0.90666524      -0.77011196
H        2.48870396      -1.01979420      -0.67753838
H        3.18329013       0.04005032       1.08084639
H        3.30642742       1.03986126      -0.49884864
H        1.44949655      -1.28038744      -0.74871096
H        0.55363298      -0.94216701       0.95053324
H       -0.69417519       0.95803035      -1.11906920
H       -0.92374761       1.85044703       1.19818415
H       -2.50590913       1.41136057       0.52953665
H       -1.71582918       0.35558249       1.70273412
H       -1.24618289      -1.40236529      -1.62955975
H       -1.83176340      -1.64888131       0.02249216
H       -2.69486841      -0.56448747      -1.06498330
18
Frame=12 idx=002227 GeodesicLength=1.1202156996173525 rxn_smarts="[C:1]([O:2][C:3]([C:4]([C:5]([H:13])([H:14])[H:15])([C:6]([H:16])([H:17])[H:18])[H:12])([H:10])[H:11])([H:7])([H:8])[H:9]>>[C-:1]([O+:2]=[C:3]([C:4]([C:5]([H:13])([H:14])[H:15])([C:6]([H:16])([H:17])[H:18])[H:12])[H:11])([H:8])[H:9].[H:7][H:10]"
C        2.75347935       0.35256116       0.13091963
O        1.45379853       0.70192151       0.22108494
C        0.51065726      -0.24070032       0.11765014
C       -0.84558152       0.26245232      -0.28680053
C       -1.53729439       1.01334882       0.85436242
C       -1.70027447      -0.90235805      -0.77879344
H        2.50092116      -1.02304148      -0.64271450
H        3.20596633       0.07954138       1.07710413
H        3.28775326       1.01752838      -0.54032306
H        1.42735021      -1.27741694      -0.73252865
H        0.54599760      -0.94240568       0.95741261
H       -0.68827192       0.96208371      -1.11413334
H       -0.92013663       1.83968526       1.20906101
H       -2.50234462       1.41127017       0.53261247
H       -1.71983447       0.34471497       1.70068983
H       -1.24474724      -1.39358735      -1.64046977
H       -1.83461586      -1.64918840       0.00888755
H       -2.69282258      -0.55640947      -1.07402144
18
Frame=13 idx=002227 GeodesicLength=1.2126081325810587 rxn_smarts="[C:1]([O:2][C:3]([C:4]([C:5]([H:13])([H:14])[H:15])([C:6]([H:16])([H:17])[H:18])[H:12])([H:10])[H:11])([H:7])([H:8])[H:9]>>[C-:1]([O+:2]=[C:3]([C:4]([C:5]([H:13])([H:14])[H:15])([C:6]([H:16])([H:17])[H:18])[H:12])[H:11])([H:8])[H:9].[H:7][H:10]"
C        2.75357378       0.34751636       0.12429434
O        1.45341281       0.69938357       0.23598728
C        0.51091925      -0.24708379       0.11795487
C       -0.84375324       0.26196814      -0.28646985
C       -1.53580283       1.00760101       0.85759601
C       -1.69985835      -0.89786577      -0.78745207
H        2.51475370      -1.02742446      -0.60457406
H        3.22822085       0.12158853       1.07208250
H        3.26805745       0.99367902      -0.58076762
H        1.40515005      -1.27400742      -0.71858689
H        0.53850264      -0.94321249       0.96330597
H       -0.68260316       0.96619154      -1.10919561
H       -0.91620557       1.82871315       1.21996417
H       -2.49858302       1.41116301       0.53615439
H       -1.72343324       0.33373933       1.69870632
H       -1.24372865      -1.38456570      -1.65145540
H       -1.83758879      -1.64934033      -0.00477732
H       -2.69103367      -0.54804370      -1.08276701
18
Frame=14 idx=002227 GeodesicLength=1.3051996465942604 rxn_smarts="[C:1]([O:2][C:3]([C:4]([C:5]([H:13])([H:14])[H:15])([C:6]([H:16])([H:17])[H:18])[H:12])([H:10])[H:11])([H:7])([H:8])[H:9]>>[C-:1]([O+:2]=[C:3]([C:4]([C:5]([H:13])([H:14])[H:15])([C:6]([H:16])([H:17])[H:18])[H:12])[H:11])([H:8])[H:9].[H:7][H:10]"
C        2.75360164       0.34259286       0.11831413
O        1.45304845       0.69657704       0.24996904
C        0.51116580      -0.25352896       0.11775501
C       -0.84200650       0.26150598      -0.28623254
C       -1.53406818       1.00172487       0.86100066
C       -1.69969878      -0.89316879      -0.79611421
H        2.53017631      -1.03282486      -0.56269254
H        3.24990074       0.16641243       1.06564338
H        3.24757921       0.96796320      -0.62021137
H        1.38291098      -1.27015876      -0.70695789
H        0.53118645      -0.94458923       0.96813163
H       -0.67723688       0.97039428      -1.10426192
H       -0.91195141       1.81748803       1.23092788
H       -2.49464100       1.41098776       0.54024713
H       -1.72657418       0.32258589       1.69680484
H       -1.24318302      -1.37523957      -1.66258288
H       -1.84066400      -1.64934443      -0.01855002
H       -2.68954564      -0.53937773      -1.09119032
18
Frame=15 idx=002227 GeodesicLength=1.398024265090807 rxn_smarts="[C:1]([O:2][C:3]([C:4]([C:5]([H:13])([H:14])[H:15])([C:6]([H:16])([H:17])[H:18])[H:12])([H:10])[H:11])([H:7])([H:8])[H:9]>>[C-:1]([O+:2]=[C:3]([C:4]([C:5]([H:13])([H:14])[H:15])([C:6]([H:16])([H:17])[H:18])[H:12])[H:11])([H:8])[H:9].[H:7][H:10]"
C        2.75360948       0.33779856       0.11305277
O        1.45267883       0.69358666       0.26293935
C        0.51140300      -0.25999374       0.11694674
C       -0.84036932       0.26108334      -0.28610823
C       -1.53209231       0.99567556       0.86460351
C       -1.69982623      -0.88824633      -0.80479576
H        2.54725138      -1.03921196      -0.51667889
H        3.27088521       0.21420679       1.05760544
H        3.22654799       0.94000023      -0.65861138
H        1.36061609      -1.26579883      -0.69773464
H        0.52408713      -0.94650922       0.97178667
H       -0.67225599       0.97473684      -1.09933486
H       -0.90738220       1.80597096       1.24197253
H       -2.49054594       1.41067953       0.54497549
H       -1.72920406       0.31118212       1.69500027
H       -1.24317153      -1.36554424      -1.67390357
H       -1.84382028      -1.64920720      -0.03246823
H       -2.68841126      -0.53040909      -1.09924722
18
Frame=16 idx=002227 GeodesicLength=1.491094870862273 rxn_smarts="[C:1]([O:2][C:3]([C:4]([C:5]([H:13])([H:14])[H:15])([C:6]([H:16])([H:17])[H:18])[H:12])([H:10])[H:11])([H:7])([H:8])[H:9]>>[C-:1]([O+:2]=[C:3]([C:4]([C:5]([H:13])([H:14])[H:15])([C:6]([H:16])([H:17])[H:18])[H:12])[H:11])([H:8])[H:9].[H:7][H:10]"
C        2.75364511       0.33313170       0.10856287
O        1.45228198       0.69048714       0.27484394
C        0.51163821      -0.26644938       0.11545598
C       -0.83886252       0.26072341      -0.28610642
C       -1.52988540       0.98940619       0.86844998
C       -1.70025757      -0.88306757      -0.81354412
H        2.56598473      -1.04638283      -0.46606189
H        3.29108383       0.26522811       1.04762944
H        3.20516793       0.90927270      -0.69597060
H        1.33826113      -1.26095413      -0.69093119
H        0.51723567      -0.94896480       0.97422291
H       -0.66772435       0.97928782      -1.09439897
H       -0.90251229       1.79410852       1.25317106
H       -2.48632536       1.41018790       0.55042594
H       -1.73129986       0.29943309       1.69331317
H       -1.24373106      -1.35539072      -1.68550921
H       -1.84703378      -1.64894472      -0.04661413
H       -2.68766640      -0.52111245      -1.10693877
