17
Frame=0 idx=011159 GeodesicLength=0.0 rxn_smarts="[C:1]1([H:8])([H:9])[C@:2]2([H:10])[C@@:3]1([H:11])[C@:4]1([H:12])[C:5]([H:13])([H:14])[C:6]([H:15])([H:16])[C@:7]21[H:17]>>[C:1]([C@:3]1([H:11])[C:2][C@@:7]2([H:17])[C@:4]1([H:12])[C:5]([H:13])([H:14])[C:6]2([H:15])[H:16])([H:8])([H:9])[H:10]"
C        1.38026468      -0.29435430       1.02395295
C        1.34500465       0.97776636      -0.42596826
C        1.25853155      -0.53303194      -0.47468999
C       -0.18261931      -0.52840723      -1.01943774
C       -1.35335268      -0.70450136      -0.03196927
C       -1.28596880       0.81024515       0.30731570
C       -0.17773970       0.99525524      -0.75915658
H        2.35701006      -0.58782202       1.39299084
H        0.55517744      -0.64699236       1.63289199
H        1.42671534       0.86051102       1.13966129
H        2.03315088      -1.17206778      -0.88776274
H       -0.28796229      -0.95069449      -2.01680457
H       -1.20950689      -1.40779375       0.79087668
H       -2.27985305      -0.97187973      -0.53990090
H       -2.20220942       1.35099706       0.07317938
H       -1.00031244       1.06668634       1.32838329
H       -0.37633002       1.73608373      -1.53356200
17
Frame=1 idx=011159 GeodesicLength=0.06900534271765675 rxn_smarts="[C:1]1([H:8])([H:9])[C@:2]2([H:10])[C@@:3]1([H:11])[C@:4]1([H:12])[C:5]([H:13])([H:14])[C:6]([H:15])([H:16])[C@:7]21[H:17]>>[C:1]([C@:3]1([H:11])[C:2][C@@:7]2([H:17])[C@:4]1([H:12])[C:5]([H:13])([H:14])[C:6]2([H:15])[H:16])([H:8])([H:9])[H:10]"
C        1.38602598      -0.30396762       1.02878293
C        1.33058512       0.97932747      -0.40738100
C        1.25430851      -0.53126968      -0.46849907
C       -0.18432162      -0.53236170      -1.01706228
C       -1.35740069      -0.70141275      -0.03179808
C       -1.28831631       0.81400623       0.30048328
C       -0.18108638       0.99351927      -0.76884954
H        2.36748637      -0.59471498       1.38786417
H        0.57050760      -0.67227737       1.64154908
H        1.43438552       0.86526033       1.15642356
H        2.03725462      -1.14596551      -0.90268600
H       -0.28756842      -0.96279733      -2.01126271
H       -1.21778327      -1.40113580       0.79464951
H       -2.28330291      -0.96883702      -0.54092152
H       -2.20312956       1.35696001       0.06605561
H       -0.99930115       1.07508296       1.31949846
H       -0.37834343       1.73058349      -1.54684640
17
Frame=2 idx=011159 GeodesicLength=0.13800493755226684 rxn_smarts="[C:1]1([H:8])([H:9])[C@:2]2([H:10])[C@@:3]1([H:11])[C@:4]1([H:12])[C:5]([H:13])([H:14])[C:6]([H:15])([H:16])[C@:7]21[H:17]>>[C:1]([C@:3]1([H:11])[C:2][C@@:7]2([H:17])[C@:4]1([H:12])[C:5]([H:13])([H:14])[C:6]2([H:15])[H:16])([H:8])([H:9])[H:10]"
C        1.39187431      -0.31377457       1.03353260
C        1.31577109       0.98066860      -0.38845463
C        1.25006437      -0.52957690      -0.46228122
C       -0.18607526      -0.53630750      -1.01460923
C       -1.36147734      -0.69827136      -0.03156895
C       -1.29079064       0.81784917       0.29346381
C       -0.18427637       0.99171050      -0.77848147
H        2.37813748      -0.60131715       1.38245702
H        0.58643759      -0.69836221       1.64985637
H        1.44225369       0.87009476       1.17324458
H        2.04067901      -1.11929069      -0.91720484
H       -0.28724207      -0.97488982      -2.00556042
H       -1.22597638      -1.39420753       0.79859536
H       -2.28674540      -0.96588918      -0.54186380
H       -2.20411455       1.36297651       0.05846569
H       -0.99862383       1.08352963       1.31046959
H       -0.37989571       1.72505776      -1.56006047
17
Frame=3 idx=011159 GeodesicLength=0.2070085270556089 rxn_smarts="[C:1]1([H:8])([H:9])[C@:2]2([H:10])[C@@:3]1([H:11])[C@:4]1([H:12])[C:5]([H:13])([H:14])[C:6]([H:15])([H:16])[C@:7]21[H:17]>>[C:1]([C@:3]1([H:11])[C:2][C@@:7]2([H:17])[C@:4]1([H:12])[C:5]([H:13])([H:14])[C:6]2([H:15])[H:16])([H:8])([H:9])[H:10]"
C        1.39781029      -0.32376874       1.03819483
C        1.30056452       0.98176372      -0.36919631
C        1.24579772      -0.52796487      -0.45603565
C       -0.18788397      -0.54023625      -1.01207880
C       -1.36558401      -0.69507778      -0.03128209
C       -1.29340379       0.82177068       0.28625569
C       -0.18729251       0.98983572      -0.78802164
H        2.38895502      -0.60760122       1.37676935
H        0.60300441      -0.72525722       1.65777269
H        1.45033412       0.87504451       1.19009066
H        2.04340103      -1.09209555      -0.93127394
H       -0.28698905      -0.98694962      -1.99970323
H       -1.23407658      -1.38700512       0.80271340
H       -2.29018053      -0.96304231      -0.54272714
H       -2.20517287       1.36903863       0.05038823
H       -0.99831997       1.09202680       1.30130351
H       -0.38096382       1.71951861      -1.57316955
17
Frame=4 idx=011159 GeodesicLength=0.27602462397343 rxn_smarts="[C:1]1([H:8])([H:9])[C@:2]2([H:10])[C@@:3]1([H:11])[C@:4]1([H:12])[C:5]([H:13])([H:14])[C:6]([H:15])([H:16])[C@:7]21[H:17]>>[C:1]([C@:3]1([H:11])[C:2][C@@:7]2([H:17])[C@:4]1([H:12])[C:5]([H:13])([H:14])[C:6]2([H:15])[H:16])([H:8])([H:9])[H:10]"
C        1.40383341      -0.33394240       1.04276361
C        1.28496893       0.98258590      -0.34961636
C        1.24150668      -0.52644436      -0.44976101
C       -0.18975178      -0.54413918      -1.00947168
C       -1.36972245      -0.69183278      -0.03093818
C       -1.29616777       0.82576685       0.27885832
C       -0.19011787       0.98790259      -0.79743744
H        2.39992801      -0.61353693       1.37080471
H        0.62024477      -0.75297329       1.66525327
H        1.45864332       0.88014382       1.20692396
H        2.04540063      -1.06444144      -0.94484578
H       -0.28681552      -0.99895199      -1.99369824
H       -1.24207436      -1.37952645       0.80700121
H       -2.29360876      -0.96030204      -0.54351153
H       -2.20631251       1.37513745       0.04180390
H       -0.99842948       1.10057516       1.29200782
H       -0.38152526       1.71397910      -1.58613659
17
Frame=5 idx=011159 GeodesicLength=0.34504418012644844 rxn_smarts="[C:1]1([H:8])([H:9])[C@:2]2([H:10])[C@@:3]1([H:11])[C@:4]1([H:12])[C:5]([H:13])([H:14])[C:6]([H:15])([H:16])[C@:7]21[H:17]>>[C:1]([C@:3]1([H:11])[C:2][C@@:7]2([H:17])[C@:4]1([H:12])[C:5]([H:13])([H:14])[C:6]2([H:15])[H:16])([H:8])([H:9])[H:10]"
C        1.40994106      -0.34428542       1.04723558
C        1.26899060       0.98310816      -0.32972445
C        1.23718814      -0.52502602      -0.44345392
C       -0.19168269      -0.54800747      -1.00678866
C       -1.37389532      -0.68853728      -0.03053869
C       -1.29909410       0.82983317       0.27127275
C       -0.19273693       0.98591945      -0.80669657
H        2.41104268      -0.61909738       1.36456913
H        0.63819655      -0.78151423       1.67225166
H        1.46719855       0.88542558       1.22369982
H        2.04666399      -1.03639336      -0.95787249
H       -0.28672630      -1.01087222      -1.98755326
H       -1.24996178      -1.37177123       0.81145409
H       -2.29703147      -0.95767249      -0.54421820
H       -2.20754231       1.38126401       0.03269675
H       -0.99899041       1.10917431       1.28259181
H       -0.38156025       1.70845240      -1.59892537
17
Frame=6 idx=011159 GeodesicLength=0.41408091718188395 rxn_smarts="[C:1]1([H:8])([H:9])[C@:2]2([H:10])[C@@:3]1([H:11])[C@:4]1([H:12])[C:5]([H:13])([H:14])[C:6]([H:15])([H:16])[C@:7]21[H:17]>>[C:1]([C@:3]1([H:11])[C:2][C@@:7]2([H:17])[C@:4]1([H:12])[C:5]([H:13])([H:14])[C:6]2([H:15])[H:16])([H:8])([H:9])[H:10]"
C        1.41613039      -0.35479195       1.05160656
C        1.25263577       0.98330137      -0.30952950
C        1.23283845      -0.52372318      -0.43711118
C       -0.19368175      -0.55183365      -1.00403024
C       -1.37810647      -0.68519267      -0.03008432
C       -1.30219500       0.83396462       0.26349953
C       -0.19513380       0.98389420      -0.81576452
H        2.42228421      -0.62425571       1.35807059
H        0.65689636      -0.81088061       1.67872000
H        1.47602001       0.89093038       1.24037551
H        2.04718230      -1.00801498      -0.97031204
H       -0.28672820      -1.02268582      -1.98127732
H       -1.25773310      -1.36373978       0.81606790
H       -2.30045119      -0.95515803      -0.54484816
H       -2.20886939       1.38740845       0.02304899
H       -1.00004254       1.11782597       1.27306442
H       -0.38104605       1.70295139      -1.61149621
17
Frame=7 idx=011159 GeodesicLength=0.4831348952179757 rxn_smarts="[C:1]1([H:8])([H:9])[C@:2]2([H:10])[C@@:3]1([H:11])[C@:4]1([H:12])[C:5]([H:13])([H:14])[C:6]([H:15])([H:16])[C@:7]21[H:17]>>[C:1]([C@:3]1([H:11])[C:2][C@@:7]2([H:17])[C@:4]1([H:12])[C:5]([H:13])([H:14])[C:6]2([H:15])[H:16])([H:8])([H:9])[H:10]"
C        1.42239710      -0.36545549       1.05587543
C        1.23591261       0.98313620      -0.28904072
C        1.22845369      -0.52254926      -0.43072784
C       -0.19575338      -0.55561064      -1.00119724
C       -1.38236022      -0.68180074      -0.02957711
C       -1.30548076       0.83815514       0.25554131
C       -0.19729318       0.98183525      -0.82460745
H        2.43363589      -0.62898665       1.35132069
H        0.67637867      -0.84106434       1.68460916
H        1.48512811       0.89669787       1.25690356
H        2.04694870      -0.97937199      -0.98212339
H       -0.28682689      -1.03436844      -1.97488046
H       -1.26538396      -1.35543509       0.82083544
H       -2.30387111      -0.95276111      -0.54540357
H       -2.21030057       1.39356039       0.01284700
H       -1.00162186       1.12653054       1.26343549
H       -0.37996285       1.69748835      -1.62381031
17
Frame=8 idx=011159 GeodesicLength=0.5522061035266498 rxn_smarts="[C:1]1([H:8])([H:9])[C@:2]2([H:10])[C@@:3]1([H:11])[C@:4]1([H:12])[C:5]([H:13])([H:14])[C:6]([H:15])([H:16])[C@:7]21[H:17]>>[C:1]([C@:3]1([H:11])[C:2][C@@:7]2([H:17])[C@:4]1([H:12])[C:5]([H:13])([H:14])[C:6]2([H:15])[H:16])([H:8])([H:9])[H:10]"
C        1.42873485      -0.37626910       1.06004270
C        1.21883041       0.98258343      -0.26826446
C        1.22402954      -0.52151839      -0.42429780
C       -0.19790261      -0.55933189      -0.99829006
C       -1.38666235      -0.67836381      -0.02901928
C       -1.30896270       0.84239784       0.24740104
C       -0.19920268       0.97975118      -0.83319168
H        2.44507528      -0.63326768       1.34433343
H        0.69668168      -0.87205496       1.68986528
H        1.49454601       0.90277262       1.27323024
H        2.04596187      -0.95053229      -0.99326361
H       -0.28702863      -1.04589724      -1.96837320
H       -1.27291231      -1.34686175       0.82574887
H       -2.30729579      -0.95048439      -0.54588733
H       -2.21184228       1.39970793       0.00208059
H       -1.00376225       1.13528853       1.25371580
H       -0.37828803       1.69207995      -1.63583055
17
Frame=9 idx=011159 GeodesicLength=0.6213110357824899 rxn_smarts="[C:1]1([H:8])([H:9])[C@:2]2([H:10])[C@@:3]1([H:11])[C@:4]1([H:12])[C:5]([H:13])([H:14])[C:6]([H:15])([H:16])[C@:7]21[H:17]>>[C:1]([C@:3]1([H:11])[C:2][C@@:7]2([H:17])[C@:4]1([H:12])[C:5]([H:13])([H:14])[C:6]2([H:15])[H:16])([H:8])([H:9])[H:10]"
C        1.43513491      -0.38724137       1.06411889
C        1.20139610       0.98161804      -0.24718803
C        1.21955551      -0.52063233      -0.41781309
C       -0.20013446      -0.56299079      -0.99530201
C       -1.39101783      -0.67488314      -0.02840364
C       -1.31265215       0.84668985       0.23907289
C       -0.20086539       0.97764380      -0.84147523
H        2.45656840      -0.63709640       1.33712667
H        0.71781729      -0.90383992       1.69442292
H        1.50431514       0.90920052       1.28930286
H        2.04426766      -0.92155426      -1.00374763
H       -0.28733315      -1.05725343      -1.96175760
H       -1.28031732      -1.33801337       0.83081579
H       -2.31072680      -0.94833738      -0.54628944
H       -2.21349372       1.40583619      -0.00927866
H       -1.00650603       1.14412100       1.24389212
H       -0.37600817       1.68673300      -1.64749681
17
Frame=10 idx=011159 GeodesicLength=0.6904190804474604 rxn_smarts="[C:1]1([H:8])([H:9])[C@:2]2([H:10])[C@@:3]1([H:11])[C@:4]1([H:12])[C:5]([H:13])([H:14])[C:6]([H:15])([H:16])[C@:7]21[H:17]>>[C:1]([C@:3]1([H:11])[C:2][C@@:7]2([H:17])[C@:4]1([H:12])[C:5]([H:13])([H:14])[C:6]2([H:15])[H:16])([H:8])([H:9])[H:10]"
C        1.44159014      -0.39835368       1.06810103
C        1.18361897       0.98020620      -0.22583889
C        1.21502922      -0.51991904      -0.41126427
C       -0.20245335      -0.56658486      -0.99224156
C       -1.39543587      -0.67136422      -0.02774552
C       -1.31655341       0.85101671       0.23057375
C       -0.20225404       0.97552494      -0.84943205
H        2.46809985      -0.64044044       1.32971995
H        0.73983107      -0.93637594       1.69825598
H        1.51445381       0.91602659       1.30505098
H        2.04183228      -0.89250601      -1.01349289
H       -0.28774862      -1.06841043      -1.95505481
H       -1.28760495      -1.32891391       0.83600391
H       -2.31417456      -0.94630945      -0.54663380
H       -2.21526150       1.41193837      -0.02121352
H       -1.00986821       1.15300084       1.23400111
H       -0.37310082       1.68146435      -1.65878941
17
Frame=11 idx=011159 GeodesicLength=0.7595658752930214 rxn_smarts="[C:1]1([H:8])([H:9])[C@:2]2([H:10])[C@@:3]1([H:11])[C@:4]1([H:12])[C:5]([H:13])([H:14])[C:6]([H:15])([H:16])[C@:7]21[H:17]>>[C:1]([C@:3]1([H:11])[C:2][C@@:7]2([H:17])[C@:4]1([H:12])[C:5]([H:13])([H:14])[C:6]2([H:15])[H:16])([H:8])([H:9])[H:10]"
C        1.44808910      -0.40960388       1.07199284
C        1.16550393       0.97831818      -0.20421895
C        1.21044726      -0.51939624      -0.40464697
C       -0.20486461      -0.57011159      -0.98910996
C       -1.39992369      -0.66781157      -0.02704871
C       -1.32067318       0.85536845       0.22190722
C       -0.20335984       0.97340286      -0.85702857
H        2.47963837      -0.64328731       1.32213941
H        0.76275748      -0.96963852       1.70131417
H        1.52499512       0.92331784       1.32041870
H        2.03865796      -0.86345408      -1.02246862
H       -0.28828341      -1.07935000      -1.94828042
H       -1.29477797      -1.31957289       0.84130192
H       -2.31764490      -0.94440155      -0.54692602
H       -2.21714393       1.41800156      -0.03372954
H       -1.01387278       1.16192621       1.22404700
H       -0.36954490       1.67629252      -1.66966350
17
Frame=12 idx=011159 GeodesicLength=0.8287214305280067 rxn_smarts="[C:1]1([H:8])([H:9])[C@:2]2([H:10])[C@@:3]1([H:11])[C@:4]1([H:12])[C:5]([H:13])([H:14])[C:6]([H:15])([H:16])[C@:7]21[H:17]>>[C:1]([C@:3]1([H:11])[C:2][C@@:7]2([H:17])[C@:4]1([H:12])[C:5]([H:13])([H:14])[C:6]2([H:15])[H:16])([H:8])([H:9])[H:10]"
C        1.45462135      -0.42098983       1.07580374
C        1.14705791       0.97592762      -0.18233275
C        1.20579923      -0.51907706      -0.39794710
C       -0.20737264      -0.57356840      -0.98590859
C       -1.40449123      -0.66423038      -0.02632142
C       -1.32501562       0.85973366       0.21308328
C       -0.20417321       0.97128321      -0.86423126
H        2.49115523      -0.64562980       1.31440816
H        0.78661366      -1.00357253       1.70356684
H        1.53597902       0.93111707       1.33532355
H        2.03476634      -0.83445824      -1.03064947
H       -0.28893730      -1.09005016      -1.94144820
H       -1.30184784      -1.31000685       0.84668975
H       -2.32114641      -0.94260852      -0.54718077
H       -2.21914066       1.42401423      -0.04682198
H       -1.01853872       1.17089044       1.21404546
H       -0.36532909       1.67122553      -1.68007924
17
Frame=13 idx=011159 GeodesicLength=0.8978972823574168 rxn_smarts="[C:1]1([H:8])([H:9])[C@:2]2([H:10])[C@@:3]1([H:11])[C@:4]1([H:12])[C:5]([H:13])([H:14])[C:6]([H:15])([H:16])[C@:7]21[H:17]>>[C:1]([C@:3]1([H:11])[C:2][C@@:7]2([H:17])[C@:4]1([H:12])[C:5]([H:13])([H:14])[C:6]2([H:15])[H:16])([H:8])([H:9])[H:10]"
C        1.46117454      -0.43250968       1.07954328
C        1.12828430       0.97300574      -0.16017782
C        1.20107902      -0.51897876      -0.39115569
C       -0.20998243      -0.57695464      -0.98263870
C       -1.40914894      -0.66062658      -0.02557078
C       -1.32958449       0.86410033       0.20410967
C       -0.20468844       0.96917208      -0.87100813
H        2.50261463      -0.64746346       1.30655381
H        0.81142844      -1.03813279       1.70496897
H        1.54744605       0.93949001       1.34968969
H        2.03016946      -0.80557976      -1.03800359
H       -0.28971489      -1.10049426      -1.93457361
H       -1.30882578      -1.30023229       0.85214953
H       -2.32468808      -0.94092723      -0.54741039
H       -2.22124779       1.42996425      -0.06048680
H       -1.02388081       1.17988617       1.20400416
H       -0.36043478       1.66628087      -1.68999360
17
Frame=14 idx=011159 GeodesicLength=0.9670955296363677 rxn_smarts="[C:1]1([H:8])([H:9])[C@:2]2([H:10])[C@@:3]1([H:11])[C@:4]1([H:12])[C:5]([H:13])([H:14])[C:6]([H:15])([H:16])[C@:7]21[H:17]>>[C:1]([C@:3]1([H:11])[C:2][C@@:7]2([H:17])[C@:4]1([H:12])[C:5]([H:13])([H:14])[C:6]2([H:15])[H:16])([H:8])([H:9])[H:10]"
C        1.46773498      -0.44416470       1.08322432
C        1.10918538       0.96952318      -0.13775178
C        1.19627731      -0.51911823      -0.38425852
C       -0.21269884      -0.58027087      -0.97930185
C       -1.41390955      -0.65700767      -0.02480779
C       -1.33438148       0.86845428       0.19499798
C       -0.20489965       0.96707399      -0.87732607
H        2.51398274      -0.64878472       1.29860779
H        0.83721836      -1.07325838       1.70548941
H        1.55944720       0.94850164       1.36342273
H        2.02488835      -0.77687554      -1.04450557
H       -0.29061786      -1.11066455      -1.92767350
H       -1.31573047      -1.29027135       0.85765672
H       -2.32828098      -0.93935054      -0.54763461
H       -2.22345912       1.43584029      -0.07471251
H       -1.02990861       1.18890081       1.19393680
H       -0.35484776       1.66147236      -1.69936354
17
Frame=15 idx=011159 GeodesicLength=1.0363135534356764 rxn_smarts="[C:1]1([H:8])([H:9])[C@:2]2([H:10])[C@@:3]1([H:11])[C@:4]1([H:12])[C:5]([H:13])([H:14])[C:6]([H:15])([H:16])[C@:7]21[H:17]>>[C:1]([C@:3]1([H:11])[C:2][C@@:7]2([H:17])[C@:4]1([H:12])[C:5]([H:13])([H:14])[C:6]2([H:15])[H:16])([H:8])([H:9])[H:10]"
C        1.47428806      -0.45595715       1.08686183
C        1.08976142       0.96545067      -0.11504904
C        1.19138430      -0.51951274      -0.37724057
C       -0.21552638      -0.58351845      -0.97589956
C       -1.41878741      -0.65338189      -0.02404497
C       -1.33940716       0.87278055       0.18576053
C       -0.20480210       0.96499287      -0.88315206
H        2.52522546      -0.64959358       1.29060284
H        0.86399910      -1.10887864       1.70509833
H        1.57203643       0.95821824       1.37641969
H        2.01894477      -0.74840021      -1.05012848
H       -0.29164687      -1.12054456      -1.92076509
H       -1.32258479      -1.28014918       0.86318478
H       -2.33193731      -0.93787018      -0.54787678
H       -2.22576664       1.44163192      -0.08948452
H       -1.03662711       1.19791789       1.18385839
H       -0.34855379       1.65681445      -1.70814529
17
Frame=16 idx=011159 GeodesicLength=1.1055626011769595 rxn_smarts="[C:1]1([H:8])([H:9])[C@:2]2([H:10])[C@@:3]1([H:11])[C@:4]1([H:12])[C:5]([H:13])([H:14])[C:6]([H:15])([H:16])[C@:7]21[H:17]>>[C:1]([C@:3]1([H:11])[C:2][C@@:7]2([H:17])[C@:4]1([H:12])[C:5]([H:13])([H:14])[C:6]2([H:15])[H:16])([H:8])([H:9])[H:10]"
C        1.48081754      -0.46789050       1.09047403
C        1.07000976       0.96075756      -0.09205946
C        1.18638940      -0.52018001      -0.37008456
C       -0.21846960      -0.58670014      -0.97243294
C       -1.42379916      -0.64975831      -0.02329726
C       -1.34466066       0.87706326       0.17641164
C       -0.20439286       0.96293127      -0.88845272
H        2.53630493      -0.64988974       1.28257599
H        0.89178681      -1.14492633       1.70376603
H        1.58527535       0.96871886       1.38856145
H        2.01236150      -0.72020652      -1.05484344
H       -0.29280098      -1.13012008      -1.91386545
H       -1.32941739      -1.26989459       0.86870375
H       -2.33567112      -0.93647535      -0.54816510
H       -2.22815836       1.44733090      -0.10478372
H       -1.04403683       1.20691709       1.17378370
H       -0.34153830       1.65232264      -1.71629194
