13
Frame=0 idx=008860 GeodesicLength=0.0 rxn_smarts="[N:1]#[C:2][C@@:3]1([H:8])[C@@:4]2([H:9])[C:5]([H:10])([H:11])[C:6]([H:12])([H:13])[N:7]12>>[N:1]#[C:2]/[C:3](=[C:4](\[N:7]1[C:5]([H:10])([H:11])[C:6]1([H:12])[H:13])[H:9])[H:8]"
N        2.71961467      -0.40049498       1.41417951
C        2.14132224      -0.32895358       0.41741500
C        1.44019388      -0.32737504      -0.80316883
C        0.06504763       0.00787586      -0.85331737
C       -0.87717730      -0.55759595       0.32324818
C       -1.36205415       0.84999994       0.54807239
N       -0.16834119       1.28436363      -0.15524336
H        2.02718679      -0.48903552      -1.69967634
H       -0.41795806      -0.09718361      -1.82822084
H       -1.56852876      -1.30253769      -0.06300479
H       -0.27105862      -0.94579940       1.13443408
H       -2.27488222       1.10158491      -0.00918984
H       -1.45336487       1.20515138       1.57447217
13
Frame=1 idx=008860 GeodesicLength=0.07779183131219704 rxn_smarts="[N:1]#[C:2][C@@:3]1([H:8])[C@@:4]2([H:9])[C:5]([H:10])([H:11])[C:6]([H:12])([H:13])[N:7]12>>[N:1]#[C:2]/[C:3](=[C:4](\[N:7]1[C:5]([H:10])([H:11])[C:6]1([H:12])[H:13])[H:9])[H:8]"
N        2.69531766      -0.41422940       1.42381300
C        2.13448460      -0.33845367       0.41783981
C        1.44070835      -0.30254293      -0.80778374
C        0.05839150      -0.01095401      -0.87230906
C       -0.87595954      -0.55940767       0.33610826
C       -1.35660878       0.85092528       0.54761142
N       -0.16015815       1.25749548      -0.16550683
H        2.03609998      -0.44099751      -1.70259117
H       -0.41938655      -0.10788077      -1.84938109
H       -1.57072010      -1.30391063      -0.04448548
H       -0.28151523      -0.95103312       1.15434458
H       -2.27016757       1.10024227      -0.00773856
H       -1.43048618       1.22074669       1.57007886
13
Frame=2 idx=008860 GeodesicLength=0.15543696388960587 rxn_smarts="[N:1]#[C:2][C@@:3]1([H:8])[C@@:4]2([H:9])[C:5]([H:10])([H:11])[C:6]([H:12])([H:13])[N:7]12>>[N:1]#[C:2]/[C:3](=[C:4](\[N:7]1[C:5]([H:10])([H:11])[C:6]1([H:12])[H:13])[H:9])[H:8]"
N        2.67296860      -0.42919538       1.43153801
C        2.12801137      -0.34844314       0.41759716
C        1.44054190      -0.27818665      -0.81159590
C        0.05244608      -0.02954400      -0.89043086
C       -0.87442291      -0.56096578       0.34925709
C       -1.35167923       0.85182002       0.54678638
N       -0.15276073       1.23082264      -0.17531633
H        2.04366806      -0.39282830      -1.70454920
H       -0.41947750      -0.11758799      -1.87006427
H       -1.57201270      -1.30525131      -0.02623000
H       -0.29267701      -0.95524681       1.17542999
H       -2.26584529       1.09818971      -0.00714833
H       -1.40876064       1.23641698       1.56472626
13
Frame=3 idx=008860 GeodesicLength=0.23297972797886318 rxn_smarts="[N:1]#[C:2][C@@:3]1([H:8])[C@@:4]2([H:9])[C:5]([H:10])([H:11])[C:6]([H:12])([H:13])[N:7]12>>[N:1]#[C:2]/[C:3](=[C:4](\[N:7]1[C:5]([H:10])([H:11])[C:6]1([H:12])[H:13])[H:9])[H:8]"
N        2.65214551      -0.44801495       1.43729225
C        2.12191791      -0.35772355       0.41672720
C        1.43974766      -0.25399756      -0.81463136
C        0.04716113      -0.04787799      -0.90776059
C       -0.87231368      -0.56210635       0.36293552
C       -1.34738641       0.85274580       0.54541519
N       -0.14646072       1.20452867      -0.18509810
H        2.05002442      -0.34378498      -1.70550931
H       -0.41831887      -0.12685188      -1.89022939
H       -1.57196254      -1.30673479      -0.00766558
H       -0.30408054      -0.95777792       1.19796455
H       -2.26218988       1.09502887      -0.00754950
H       -1.38828399       1.25256663       1.55810913
13
Frame=4 idx=008860 GeodesicLength=0.3104183277857684 rxn_smarts="[N:1]#[C:2][C@@:3]1([H:8])[C@@:4]2([H:9])[C:5]([H:10])([H:11])[C:6]([H:12])([H:13])[N:7]12>>[N:1]#[C:2]/[C:3](=[C:4](\[N:7]1[C:5]([H:10])([H:11])[C:6]1([H:12])[H:13])[H:9])[H:8]"
N        2.63294862      -0.47115181       1.44103713
C        2.11630610      -0.36583047       0.41533809
C        1.43837656      -0.22993198      -0.81691567
C        0.04255508      -0.06589269      -0.92435623
C       -0.86964811      -0.56278692       0.37714200
C       -1.34380134       0.85371746       0.54350390
N       -0.14128675       1.17870506      -0.19486633
H        2.05520185      -0.29409876      -1.70544282
H       -0.41593750      -0.13575417      -1.90988637
H       -1.57055027      -1.30839186       0.01121970
H       -0.31571638      -0.95854804       1.22187363
H       -2.25931187       1.09071495      -0.00887074
H       -1.36913598       1.26924925       1.55022369
13
Frame=5 idx=008860 GeodesicLength=0.38777706263941686 rxn_smarts="[N:1]#[C:2][C@@:3]1([H:8])[C@@:4]2([H:9])[C:5]([H:10])([H:11])[C:6]([H:12])([H:13])[N:7]12>>[N:1]#[C:2]/[C:3](=[C:4](\[N:7]1[C:5]([H:10])([H:11])[C:6]1([H:12])[H:13])[H:9])[H:8]"
N        2.61555598      -0.49609022       1.44292257
C        2.11096856      -0.37362358       0.41351184
C        1.43637736      -0.20652487      -0.81848660
C        0.03861594      -0.08358563      -0.94032691
C       -0.86666324      -0.56315389       0.39160620
C       -1.34070303       0.85465874       0.54126755
N       -0.13686336       1.15316100      -0.20426198
H        2.05915346      -0.24444193      -1.70429938
H       -0.41235184      -0.14391234      -1.92914367
H       -1.56822409      -1.31003337       0.02987667
H       -0.32796429      -0.95817393       1.24670759
H       -2.25691428       1.08565243      -0.01079193
H       -1.35098718       1.28606758       1.54141806
13
Frame=6 idx=008860 GeodesicLength=0.4650678394686343 rxn_smarts="[N:1]#[C:2][C@@:3]1([H:8])[C@@:4]2([H:9])[C:5]([H:10])([H:11])[C:6]([H:12])([H:13])[N:7]12>>[N:1]#[C:2]/[C:3](=[C:4](\[N:7]1[C:5]([H:10])([H:11])[C:6]1([H:12])[H:13])[H:9])[H:8]"
N        2.59989867      -0.52347331       1.44291641
C        2.10592370      -0.38062686       0.41137322
C        1.43380277      -0.18365047      -0.81937394
C        0.03532337      -0.10090624      -0.95573190
C       -0.86332536      -0.56315684       0.40636584
C       -1.33812347       0.85557854       0.53868699
N       -0.13324812       1.12796611      -0.21337450
H        2.06192257      -0.19489693      -1.70207249
H       -0.40760581      -0.15146383      -1.94800273
H       -1.56489831      -1.31169582       0.04840500
H       -0.34074489      -0.95651378       1.27242903
H       -2.25507476       1.07975336      -0.01327001
H       -1.33385037       1.30308608       1.53164909
13
Frame=7 idx=008860 GeodesicLength=0.5423090134771619 rxn_smarts="[N:1]#[C:2][C@@:3]1([H:8])[C@@:4]2([H:9])[C:5]([H:10])([H:11])[C:6]([H:12])([H:13])[N:7]12>>[N:1]#[C:2]/[C:3](=[C:4](\[N:7]1[C:5]([H:10])([H:11])[C:6]1([H:12])[H:13])[H:9])[H:8]"
N        2.58590335      -0.55205195       1.44120491
C        2.10107826      -0.38721496       0.40896593
C        1.43066274      -0.16155173      -0.81964905
C        0.03264643      -0.11784503      -0.97067578
C       -0.85974471      -0.56287476       0.42129516
C       -1.33592308       0.85643910       0.53588795
N       -0.13024229       1.10302270      -0.22206323
H        2.06353188      -0.14581192      -1.69878858
H       -0.40176638      -0.15825721      -1.96653534
H       -1.56079585      -1.31330269       0.06656279
H       -0.35422374      -0.95388276       1.29876863
H       -2.25363535       1.07322204      -0.01608762
H       -1.31749125       1.32010915       1.52111424
13
Frame=8 idx=008860 GeodesicLength=0.6195115072589092 rxn_smarts="[N:1]#[C:2][C@@:3]1([H:8])[C@@:4]2([H:9])[C:5]([H:10])([H:11])[C:6]([H:12])([H:13])[N:7]12>>[N:1]#[C:2]/[C:3](=[C:4](\[N:7]1[C:5]([H:10])([H:11])[C:6]1([H:12])[H:13])[H:9])[H:8]"
N        2.57339764      -0.58116609       1.43797874
C        2.09639959      -0.39355262       0.40631887
C        1.42701397      -0.14035923      -0.81940251
C        0.03054916      -0.13440438      -0.98527152
C       -0.85598204      -0.56235334       0.43633639
C       -1.33401645       0.85722747       0.53296603
N       -0.12772482       1.07827167      -0.23027863
H        2.06407261      -0.09735193      -1.69451314
H       -0.39491915      -0.16426700      -1.98482631
H       -1.55605704      -1.31482657       0.08423964
H       -0.36846400      -0.95045129       1.32556160
H       -2.25253398       1.06617830      -0.01907312
H       -1.30173550       1.33705502       1.50996396
13
Frame=9 idx=008860 GeodesicLength=0.6967638990856206 rxn_smarts="[N:1]#[C:2][C@@:3]1([H:8])[C@@:4]2([H:9])[C:5]([H:10])([H:11])[C:6]([H:12])([H:13])[N:7]12>>[N:1]#[C:2]/[C:3](=[C:4](\[N:7]1[C:5]([H:10])([H:11])[C:6]1([H:12])[H:13])[H:9])[H:8]"
N        2.56262279      -0.61172190       1.43304270
C        2.09192771      -0.39914135       0.40357829
C        1.42280102      -0.11983511      -0.81856590
C        0.02901813      -0.15053358      -0.99947190
C       -0.85202263      -0.56154003       0.45157689
C       -1.33243581       0.85793900       0.52978850
N       -0.12579745       1.05377568      -0.23817265
H        2.06341080      -0.04945275      -1.68913210
H       -0.38707640      -0.16958211      -2.00269062
H       -1.55053247      -1.31631843       0.10162188
H       -0.38352823      -0.94606891       1.35282298
H       -2.25175192       1.05848837      -0.02236287
H       -1.28663553       1.35399112       1.49796479
13
Frame=10 idx=008860 GeodesicLength=0.7740432704327331 rxn_smarts="[N:1]#[C:2][C@@:3]1([H:8])[C@@:4]2([H:9])[C:5]([H:10])([H:11])[C:6]([H:12])([H:13])[N:7]12>>[N:1]#[C:2]/[C:3](=[C:4](\[N:7]1[C:5]([H:10])([H:11])[C:6]1([H:12])[H:13])[H:9])[H:8]"
N        2.55261240      -0.64136390       1.42695860
C        2.08747525      -0.40496714       0.40061396
C        1.41817788      -0.10041558      -0.81738965
C        0.02798492      -0.16628065      -1.01352388
C       -0.84791311      -0.56057714       0.46681906
C       -1.33089785       0.85854045       0.52666513
N       -0.12411734       1.02931425      -0.24551523
H        2.06181216      -0.00241850      -1.68286195
H       -0.37841785      -0.17408450      -2.02043644
H       -1.54453284      -1.31766777       0.11836685
H       -0.39939868      -0.94123702       1.38015511
H       -2.25107204       1.05051252      -0.02543767
H       -1.27171291       1.37064498       1.48558610
13
Frame=11 idx=008860 GeodesicLength=0.8512974298549425 rxn_smarts="[N:1]#[C:2][C@@:3]1([H:8])[C@@:4]2([H:9])[C:5]([H:10])([H:11])[C:6]([H:12])([H:13])[N:7]12>>[N:1]#[C:2]/[C:3](=[C:4](\[N:7]1[C:5]([H:10])([H:11])[C:6]1([H:12])[H:13])[H:9])[H:8]"
N        2.54438690      -0.67370552       1.41884606
C        2.08316775      -0.40940822       0.39787817
C        1.41316053      -0.08138599      -0.81564436
C        0.02749553      -0.18160071      -1.02724243
C       -0.84357092      -0.55921350       0.48238578
C       -1.32982092       0.85912668       0.52325018
N       -0.12312154       1.00518689      -0.25264685
H        2.05927063       0.04418129      -1.67553256
H       -0.36880665      -0.17825835      -2.03782321
H       -1.53763043      -1.31905250       0.13504565
H       -0.41595956      -0.93515026       1.40801967
H       -2.25094758       1.04177185      -0.02881504
H       -1.25762373       1.38750834       1.47227893
13
Frame=12 idx=008860 GeodesicLength=0.9285865572514131 rxn_smarts="[N:1]#[C:2][C@@:3]1([H:8])[C@@:4]2([H:9])[C:5]([H:10])([H:11])[C:6]([H:12])([H:13])[N:7]12>>[N:1]#[C:2]/[C:3](=[C:4](\[N:7]1[C:5]([H:10])([H:11])[C:6]1([H:12])[H:13])[H:9])[H:8]"
N        2.53736464      -0.70606145       1.40942688
C        2.07898235      -0.41355173       0.39514067
C        1.40779132      -0.06321432      -0.81354834
C        0.02749066      -0.19652564      -1.04083505
C       -0.83914440      -0.55764169       0.49807011
C       -1.32889622       0.85962934       0.51981410
N       -0.12244299       0.98114441      -0.25934398
H        2.05584138       0.08992499      -1.66733234
H       -0.35843000      -0.18175966      -2.05503477
H       -1.53022268      -1.32035829       0.15125350
H       -0.43344793      -0.92846623       1.43599740
H       -2.25104309       1.03266117      -0.03208061
H       -1.24384304       1.40421909       1.45847245
13
Frame=13 idx=008860 GeodesicLength=1.0060029388575293 rxn_smarts="[N:1]#[C:2][C@@:3]1([H:8])[C@@:4]2([H:9])[C:5]([H:10])([H:11])[C:6]([H:12])([H:13])[N:7]12>>[N:1]#[C:2]/[C:3](=[C:4](\[N:7]1[C:5]([H:10])([H:11])[C:6]1([H:12])[H:13])[H:9])[H:8]"
N        2.53208498      -0.73817101       1.39841660
C        2.07475113      -0.41755196       0.39257424
C        1.40197250      -0.04589600      -0.81098568
C        0.02793628      -0.21104398      -1.05421590
C       -0.83473970      -0.55588949       0.51387498
C       -1.32806974       0.86003401       0.51627563
N       -0.12206262       0.95713855      -0.26561279
H        2.05139663       0.13479310      -1.65811162
H       -0.34725425      -0.18450513      -2.07188021
H       -1.52236542      -1.32157133       0.16699667
H       -0.45214564      -0.92127404       1.46396679
H       -2.25121007       1.02324496      -0.03532880
H       -1.23029406       1.42069232       1.44403008
13
Frame=14 idx=008860 GeodesicLength=1.083499551380025 rxn_smarts="[N:1]#[C:2][C@@:3]1([H:8])[C@@:4]2([H:9])[C:5]([H:10])([H:11])[C:6]([H:12])([H:13])[N:7]12>>[N:1]#[C:2]/[C:3](=[C:4](\[N:7]1[C:5]([H:10])([H:11])[C:6]1([H:12])[H:13])[H:9])[H:8]"
N        2.52707581      -0.76898226       1.38669020
C        2.07055484      -0.42173839       0.38979317
C        1.39587568      -0.02956355      -0.80828416
C        0.02877215      -0.22517395      -1.06766022
C       -0.83021289      -0.55403083       0.52972941
C       -1.32712503       0.86031151       0.51286982
N       -0.12179459       0.93304714      -0.27139522
H        2.04614002       0.17865004      -1.64815594
H       -0.33552809      -0.18648133      -2.08864593
H       -1.51405803      -1.32269470       0.18217501
H       -0.47174275      -0.91380752       1.49175089
H       -2.25133560       1.01362089      -0.03815601
H       -1.21662152       1.43684295       1.42928899
13
Frame=15 idx=008860 GeodesicLength=1.1610696136598555 rxn_smarts="[N:1]#[C:2][C@@:3]1([H:8])[C@@:4]2([H:9])[C:5]([H:10])([H:11])[C:6]([H:12])([H:13])[N:7]12>>[N:1]#[C:2]/[C:3](=[C:4](\[N:7]1[C:5]([H:10])([H:11])[C:6]1([H:12])[H:13])[H:9])[H:8]"
N        2.52360281      -0.80015758       1.37348584
C        2.06637169      -0.42554395       0.38723366
C        1.38947437      -0.01389727      -0.80522020
C        0.03003390      -0.23891744      -1.08099927
C       -0.82566716      -0.55193233       0.54581054
C       -1.32633788       0.86053066       0.50937444
N       -0.12185163       0.90899171      -0.27682496
H        2.04006534       0.22176000      -1.63731707
H       -0.32310635      -0.18789875      -2.10515818
H       -1.50522062      -1.32378261       0.19706864
H       -0.49244289      -0.90568456       1.51954754
H       -2.25168112       1.00364486      -0.04091240
H       -1.20324045       1.45288726       1.41391143
13
Frame=16 idx=008860 GeodesicLength=1.2387288267167975 rxn_smarts="[N:1]#[C:2][C@@:3]1([H:8])[C@@:4]2([H:9])[C:5]([H:10])([H:11])[C:6]([H:12])([H:13])[N:7]12>>[N:1]#[C:2]/[C:3](=[C:4](\[N:7]1[C:5]([H:10])([H:11])[C:6]1([H:12])[H:13])[H:9])[H:8]"
N        2.52122742      -0.83030497       1.35936262
C        2.06216701      -0.42945846       0.38468907
C        1.38278458       0.00091168      -0.80193368
C        0.03165730      -0.25226584      -1.09436167
C       -0.82114317      -0.54970879       0.56201532
C       -1.32550307       0.86065036       0.50592877
N       -0.12206654       0.88483408      -0.28181984
H        2.03318461       0.26381968      -1.62572587
H       -0.31014339      -0.18854171      -2.12148657
H       -1.49600458      -1.32479703       0.21148774
H       -0.51432261      -0.89726552       1.54709156
H       -2.25203056       0.99351122      -0.04336776
H       -1.18980701       1.46861531       1.39812031
