17
Frame=0 idx=008925 GeodesicLength=0.0 rxn_smarts="[C:1]([O:2][C:3]([C@@:4]([O:5][H:14])([C:6]([O:7][H:17])([H:15])[H:16])[H:13])([H:11])[H:12])([H:8])([H:9])[H:10]>>[C:1]([O:2][C:3]([C@@:4]1([H:13])[O:5][C:6]1([H:15])[H:16])([H:11])[H:12])([H:8])([H:9])[H:10].[O:7]([H:14])[H:17]"
C        2.88422858       0.35194942      -0.26144284
O        1.80821647      -0.21452967       0.43569873
C        0.62171945      -0.21347665      -0.30434731
C       -0.50990686      -0.68713233       0.59078645
O       -1.00258130       0.23981788       1.49033486
C       -1.80225187      -0.81156345      -0.08338227
O       -2.55463650       1.19722063      -0.09289220
H        3.75803378       0.30214789       0.38666397
H        2.68754786       1.40173505      -0.51482710
H        3.09794302      -0.19645414      -1.18936243
H        0.38901865       0.79552274      -0.67654064
H        0.70992512      -0.88706054      -1.17492961
H       -0.20177639      -1.62792793       1.07385043
H       -1.89149119       1.09674626       0.69712366
H       -2.58805016      -1.30811373       0.46827451
H       -1.97066001      -0.63277655      -1.13669488
H       -3.43527863       1.19389512       0.29168675
17
Frame=1 idx=008925 GeodesicLength=0.1208382981531441 rxn_smarts="[C:1]([O:2][C:3]([C@@:4]([O:5][H:14])([C:6]([O:7][H:17])([H:15])[H:16])[H:13])([H:11])[H:12])([H:8])([H:9])[H:10]>>[C:1]([O:2][C:3]([C@@:4]1([H:13])[O:5][C:6]1([H:15])[H:16])([H:11])[H:12])([H:8])([H:9])[H:10].[O:7]([H:14])[H:17]"
C        2.86092803       0.38530188      -0.25497831
O        1.78779691      -0.18212919       0.44654157
C        0.61322419      -0.23923660      -0.31087425
C       -0.51375630      -0.72856007       0.57891014
O       -1.01102736       0.17810296       1.49877074
C       -1.81628945      -0.82369006      -0.08157809
O       -2.49563683       1.20839344      -0.10303102
H        3.72524790       0.38169246       0.40752876
H        2.64246851       1.41972084      -0.55012107
H        3.10244424      -0.19071091      -1.15889409
H        0.36333278       0.75139553      -0.71833815
H        0.73166737      -0.92981604      -1.16397532
H       -0.20630007      -1.67599221       1.04761091
H       -1.84601290       1.09273744       0.72925309
H       -2.60679663      -1.31980155       0.46456398
H       -1.97746963      -0.66482625      -1.13946426
H       -3.35382076       1.33741833       0.30807536
17
Frame=2 idx=008925 GeodesicLength=0.24103938403785619 rxn_smarts="[C:1]([O:2][C:3]([C@@:4]([O:5][H:14])([C:6]([O:7][H:17])([H:15])[H:16])[H:13])([H:11])[H:12])([H:8])([H:9])[H:10]>>[C:1]([O:2][C:3]([C@@:4]1([H:13])[O:5][C:6]1([H:15])[H:16])([H:11])[H:12])([H:8])([H:9])[H:10].[O:7]([H:14])[H:17]"
C        2.83549412       0.41872049      -0.24861709
O        1.76420443      -0.14870655       0.45644877
C        0.60417583      -0.26412786      -0.31731896
C       -0.51840459      -0.76875888       0.56676436
O       -1.02116195       0.11768827       1.50559281
C       -1.83029217      -0.83581180      -0.08014982
O       -2.44028284       1.21618254      -0.10972553
H        3.68824025       0.46147847       0.42732144
H        2.59708844       1.43560048      -0.58608796
H        3.10589311      -0.18390675      -1.12648119
H        0.33827903       0.70659959      -0.75995390
H        0.75369798      -0.97058647      -1.15194683
H       -0.21138198      -1.72209603       1.02193071
H       -1.80085890       1.08653171       0.76237122
H       -2.62423592      -1.33413046       0.45988399
H       -1.98517297      -0.69599877      -1.14194749
H       -3.25528186       1.48132202       0.32191544
17
Frame=3 idx=008925 GeodesicLength=0.36119050463236846 rxn_smarts="[C:1]([O:2][C:3]([C@@:4]([O:5][H:14])([C:6]([O:7][H:17])([H:15])[H:16])[H:13])([H:11])[H:12])([H:8])([H:9])[H:10]>>[C:1]([O:2][C:3]([C@@:4]1([H:13])[O:5][C:6]1([H:15])[H:16])([H:11])[H:12])([H:8])([H:9])[H:10].[O:7]([H:14])[H:17]"
C        2.80756324       0.45252498      -0.24281757
O        1.73721882      -0.11377194       0.46535505
C        0.59406615      -0.28753768      -0.32323825
C       -0.52377787      -0.80839701       0.55476814
O       -1.03283409       0.05663874       1.51244420
C       -1.84443289      -0.84831127      -0.07839884
O       -2.38587947       1.22128547      -0.11229276
H        3.64669087       0.54251025       0.44535257
H        2.55111220       1.44925651      -0.62416448
H        3.10785687      -0.17635819      -1.09193831
H        0.31311796       0.66209105      -0.80005331
H        0.77531345      -1.00791121      -1.13910601
H       -0.21647492      -1.76742290       0.99588317
H       -1.75870776       1.07613992       0.80105796
H       -2.64081471      -1.35126922       0.45468397
H       -1.99393861      -0.72645251      -1.14349456
H       -3.13607925       1.62698501       0.32595903
17
Frame=4 idx=008925 GeodesicLength=0.4803751806519886 rxn_smarts="[C:1]([O:2][C:3]([C@@:4]([O:5][H:14])([C:6]([O:7][H:17])([H:15])[H:16])[H:13])([H:11])[H:12])([H:8])([H:9])[H:10]>>[C:1]([O:2][C:3]([C@@:4]1([H:13])[O:5][C:6]1([H:15])[H:16])([H:11])[H:12])([H:8])([H:9])[H:10].[O:7]([H:14])[H:17]"
C        2.77732468       0.48652976      -0.23714691
O        1.70700241      -0.07825722       0.47304084
C        0.58306200      -0.30968842      -0.32899657
C       -0.53014339      -0.84642537       0.54274637
O       -1.04621899      -0.00252710       1.51785056
C       -1.85892306      -0.86069440      -0.07670350
O       -2.33700850       1.22374918      -0.11145982
H        3.60114035       0.62281246       0.46176465
H        2.50496241       1.46131081      -0.66161660
H        3.10786808      -0.16656063      -1.05608309
H        0.28811262       0.61768261      -0.83916462
H        0.79639862      -1.04256879      -1.12536792
H       -0.22224194      -1.81036930       0.97079734
H       -1.71782155       1.06380625       0.84086760
H       -2.65634163      -1.37107642       0.44880266
H       -2.00375978      -0.75605758      -1.14461907
H       -2.99341233       1.76833418       0.32528808
17
Frame=5 idx=008925 GeodesicLength=0.5986228493668675 rxn_smarts="[C:1]([O:2][C:3]([C@@:4]([O:5][H:14])([C:6]([O:7][H:17])([H:15])[H:16])[H:13])([H:11])[H:12])([H:8])([H:9])[H:10]>>[C:1]([O:2][C:3]([C@@:4]1([H:13])[O:5][C:6]1([H:15])[H:16])([H:11])[H:12])([H:8])([H:9])[H:10].[O:7]([H:14])[H:17]"
C        2.74479879       0.52069884      -0.23177265
O        1.67383725      -0.04260971       0.47942480
C        0.57089473      -0.33000655      -0.33433495
C       -0.53754082      -0.88259827       0.53105267
O       -1.06119878      -0.05981380       1.52250702
C       -1.87394590      -0.87274105      -0.07460076
O       -2.29372913       1.22447278      -0.10677072
H        3.55223168       0.70130571       0.47608666
H        2.45871549       1.47237077      -0.69751394
H        3.10512004      -0.15389245      -1.02001354
H        0.26292110       0.57453638      -0.87610630
H        0.81605042      -1.07343597      -1.11117212
H       -0.22862330      -1.85088252       0.94664025
H       -1.67967199       1.04938431       0.88355701
H       -2.67100723      -1.39324690       0.44264616
H       -2.01475577      -0.78454489      -1.14491819
H       -2.82409657       1.90100330       0.31528859
17
Frame=6 idx=008925 GeodesicLength=0.715964353558884 rxn_smarts="[C:1]([O:2][C:3]([C@@:4]([O:5][H:14])([C:6]([O:7][H:17])([H:15])[H:16])[H:13])([H:11])[H:12])([H:8])([H:9])[H:10]>>[C:1]([O:2][C:3]([C@@:4]1([H:13])[O:5][C:6]1([H:15])[H:16])([H:11])[H:12])([H:8])([H:9])[H:10].[O:7]([H:14])[H:17]"
C        2.71043285       0.55466382      -0.22683868
O        1.63815676      -0.00697288       0.48452449
C        0.55741201      -0.34768931      -0.33913775
C       -0.54596271      -0.91627548       0.51987981
O       -1.07738387      -0.11489244       1.52704749
C       -1.88964036      -0.88358083      -0.07170753
O       -2.25540666       1.22503616      -0.09719342
H        3.50084339       0.77713927       0.48820630
H        2.41300772       1.48256844      -0.73166342
H        3.09941648      -0.13882780      -0.98432536
H        0.23738670       0.53415904      -0.90995726
H        0.83342702      -1.09930560      -1.09716354
H       -0.23570783      -1.88867088       0.92291346
H       -1.64601520       1.03335248       0.93154833
H       -2.68504748      -1.41668915       0.43647505
H       -2.02712271      -0.81052713      -1.14401212
H       -2.62779613       2.01651230       0.29140414
17
Frame=7 idx=008925 GeodesicLength=0.8330867510516089 rxn_smarts="[C:1]([O:2][C:3]([C@@:4]([O:5][H:14])([C:6]([O:7][H:17])([H:15])[H:16])[H:13])([H:11])[H:12])([H:8])([H:9])[H:10]>>[C:1]([O:2][C:3]([C@@:4]1([H:13])[O:5][C:6]1([H:15])[H:16])([H:11])[H:12])([H:8])([H:9])[H:10].[O:7]([H:14])[H:17]"
C        2.67534558       0.58772134      -0.22219789
O        1.60127843       0.02747677       0.48841048
C        0.54334509      -0.36295041      -0.34351956
C       -0.55551378      -0.94594792       0.50920710
O       -1.09441744      -0.16477116       1.53057000
C       -1.90601239      -0.89101674      -0.06835983
O       -2.22251980       1.22865492      -0.08454814
H        3.44892012       0.84816220       0.49834474
H        2.36886849       1.49239612      -0.76240797
H        3.09103715      -0.12139500      -0.95033414
H        0.21265902       0.49658295      -0.94116946
H        0.84863746      -1.12126101      -1.08305094
H       -0.24450229      -1.92201583       0.90082797
H       -1.61362585       1.01904101       0.98122671
H       -2.69860294      -1.43874588       0.43003069
H       -2.04039849      -0.83261517      -1.14239321
H       -2.41449836       2.10068380       0.25936345
17
Frame=8 idx=008925 GeodesicLength=0.9518786290451929 rxn_smarts="[C:1]([O:2][C:3]([C@@:4]([O:5][H:14])([C:6]([O:7][H:17])([H:15])[H:16])[H:13])([H:11])[H:12])([H:8])([H:9])[H:10]>>[C:1]([O:2][C:3]([C@@:4]1([H:13])[O:5][C:6]1([H:15])[H:16])([H:11])[H:12])([H:8])([H:9])[H:10].[O:7]([H:14])[H:17]"
C        2.64018792       0.61973360      -0.21786507
O        1.56426434       0.05990342       0.49112886
C        0.52948233      -0.37678547      -0.34767447
C       -0.56604207      -0.97158164       0.49884636
O       -1.11148692      -0.20873099       1.53292125
C       -1.92287006      -0.89361861      -0.06479477
O       -2.19180607       1.23754215      -0.06977440
H        3.39683436       0.91537816       0.50698817
H        2.32623712       1.50171597      -0.79025036
H        3.08126027      -0.10205639      -0.91794533
H        0.18976807       0.46070924      -0.97063506
H        0.86250759      -1.14097065      -1.06855259
H       -0.25573083      -1.95120940       0.88022509
H       -1.57962363       1.00797492       1.03206890
H       -2.71211294      -1.45700328       0.42295413
H       -2.05422921      -0.84953301      -1.14036757
H       -2.19664027       2.14853197       0.22272685
17
Frame=9 idx=008925 GeodesicLength=1.0729271406277723 rxn_smarts="[C:1]([O:2][C:3]([C@@:4]([O:5][H:14])([C:6]([O:7][H:17])([H:15])[H:16])[H:13])([H:11])[H:12])([H:8])([H:9])[H:10]>>[C:1]([O:2][C:3]([C@@:4]1([H:13])[O:5][C:6]1([H:15])[H:16])([H:11])[H:12])([H:8])([H:9])[H:10].[O:7]([H:14])[H:17]"
C        2.60598369       0.65008954      -0.21381456
O        1.52793820       0.09009976       0.49267067
C        0.51648914      -0.38955236      -0.35190069
C       -0.57707292      -0.99342898       0.48848725
O       -1.12780808      -0.24681246       1.53398558
C       -1.93971190      -0.89112247      -0.06113862
O       -2.16164443       1.25139933      -0.05213489
H        3.34477320       0.97990324       0.51464154
H        2.28614203       1.50921563      -0.81678117
H        3.07189863      -0.08261316      -0.88574798
H        0.16926844       0.42639982      -0.99857300
H        0.87571525      -1.15885062      -1.05404744
H       -0.26932328      -1.97691192       0.86006126
H       -1.54084251       1.00088218       1.08416134
H       -2.72542990      -1.47066089       0.41500311
H       -2.06823768      -0.86052677      -1.13804092
H       -1.98813789       2.16249014       0.18316851
17
Frame=10 idx=008925 GeodesicLength=1.196307427974527 rxn_smarts="[C:1]([O:2][C:3]([C@@:4]([O:5][H:14])([C:6]([O:7][H:17])([H:15])[H:16])[H:13])([H:11])[H:12])([H:8])([H:9])[H:10]>>[C:1]([O:2][C:3]([C@@:4]1([H:13])[O:5][C:6]1([H:15])[H:16])([H:11])[H:12])([H:8])([H:9])[H:10].[O:7]([H:14])[H:17]"
C        2.57286989       0.67891886      -0.21060271
O        1.49296825       0.11790456       0.49308823
C        0.50513895      -0.40273165      -0.35598503
C       -0.58841145      -1.01212133       0.47824865
O       -1.14364703      -0.27867898       1.53311731
C       -1.95591083      -0.88378473      -0.05827619
O       -2.12531875       1.27112780      -0.03889091
H        3.29320980       1.04189527       0.52050080
H        2.24810800       1.51531858      -0.84213162
H        3.06307904      -0.06257428      -0.85485976
H        0.15260017       0.39112929      -1.02660487
H        0.88973490      -1.17767757      -1.03767402
H       -0.28533893      -1.99915399       0.84228643
H       -1.49819644       0.99616616       1.13474684
H       -2.73894040      -1.47812534       0.40583006
H       -2.08098022      -0.86827192      -1.13645735
H       -1.80096496       2.15065928       0.15366415
17
Frame=11 idx=008925 GeodesicLength=1.3215739673487454 rxn_smarts="[C:1]([O:2][C:3]([C@@:4]([O:5][H:14])([C:6]([O:7][H:17])([H:15])[H:16])[H:13])([H:11])[H:12])([H:8])([H:9])[H:10]>>[C:1]([O:2][C:3]([C@@:4]1([H:13])[O:5][C:6]1([H:15])[H:16])([H:11])[H:12])([H:8])([H:9])[H:10].[O:7]([H:14])[H:17]"
C        2.54145233       0.70585794      -0.20753658
O        1.46038245       0.14195172       0.49285474
C        0.49517276      -0.41534963      -0.35981475
C       -0.59968537      -1.02794831       0.46829688
O       -1.15884120      -0.30490970       1.53078610
C       -1.97132615      -0.87334041      -0.05553827
O       -2.09054346       1.29313127      -0.02495647
H        3.24378811       1.09894098       0.52546206
H        2.21227566       1.52121051      -0.86373985
H        3.05425115      -0.04150402      -0.82674267
H        0.13839425       0.35770820      -1.05200177
H        0.90303779      -1.19505496      -1.02168017
H       -0.30272596      -2.01845851       0.82596215
H       -1.44998963       0.99362349       1.18438803
H       -2.75166349      -1.48230372       0.39610093
H       -2.09283036      -0.87330566      -1.13483881
H       -1.63114889       2.11975080       0.12299846
17
Frame=12 idx=008925 GeodesicLength=1.4490644766819654 rxn_smarts="[C:1]([O:2][C:3]([C@@:4]([O:5][H:14])([C:6]([O:7][H:17])([H:15])[H:16])[H:13])([H:11])[H:12])([H:8])([H:9])[H:10]>>[C:1]([O:2][C:3]([C@@:4]1([H:13])[O:5][C:6]1([H:15])[H:16])([H:11])[H:12])([H:8])([H:9])[H:10].[O:7]([H:14])[H:17]"
C        2.51121160       0.73148993      -0.20489616
O        1.43028376       0.16230282       0.49222933
C        0.48672226      -0.42828279      -0.36316565
C       -0.61096709      -1.04162342       0.45869800
O       -1.17368892      -0.32619749       1.52703445
C       -1.98582967      -0.86015539      -0.05335071
O       -2.05450748       1.31763926      -0.01263019
H        3.19600327       1.15231754       0.52925636
H        2.17730732       1.52740200      -0.88217139
H        3.04533913      -0.01889789      -0.80179619
H        0.12688736       0.32469165      -1.07553360
H        0.91628387      -1.21246088      -1.00507927
H       -0.32161726      -2.03540727       0.81156979
H       -1.39750118       0.99163906       1.23315959
H       -2.76396227      -1.48282452       0.38555242
H       -2.10336429      -0.87659066      -1.13361458
H       -1.47860041       2.07495803       0.09473781
17
Frame=13 idx=008925 GeodesicLength=1.5781243927330095 rxn_smarts="[C:1]([O:2][C:3]([C@@:4]([O:5][H:14])([C:6]([O:7][H:17])([H:15])[H:16])[H:13])([H:11])[H:12])([H:8])([H:9])[H:10]>>[C:1]([O:2][C:3]([C@@:4]1([H:13])[O:5][C:6]1([H:15])[H:16])([H:11])[H:12])([H:8])([H:9])[H:10].[O:7]([H:14])[H:17]"
C        2.48226273       0.75572872      -0.20278723
O        1.40261677       0.17956575       0.49136557
C        0.47966982      -0.44133239      -0.36599222
C       -0.62213222      -1.05342891       0.44943636
O       -1.18837888      -0.34309426       1.52194038
C       -1.99928062      -0.84491438      -0.05190713
O       -2.01699234       1.34383293      -0.00247863
H        3.14982189       1.20256058       0.53183454
H        2.14345281       1.53335742      -0.89854845
H        3.03663947       0.00434075      -0.77938974
H        0.11779212       0.29229994      -1.09722241
H        0.92949571      -1.22972015      -0.98786225
H       -0.34155408      -2.05020484       0.79900495
H       -1.34157248       0.98909944       1.28134681
H       -2.77572212      -1.48029050       0.37412705
H       -2.11241450      -0.87890684      -1.13292556
H       -1.34370407       2.02110674       0.07005796
17
Frame=14 idx=008925 GeodesicLength=1.7080885599335263 rxn_smarts="[C:1]([O:2][C:3]([C@@:4]([O:5][H:14])([C:6]([O:7][H:17])([H:15])[H:16])[H:13])([H:11])[H:12])([H:8])([H:9])[H:10]>>[C:1]([O:2][C:3]([C@@:4]1([H:13])[O:5][C:6]1([H:15])[H:16])([H:11])[H:12])([H:8])([H:9])[H:10].[O:7]([H:14])[H:17]"
C        2.45473503       0.77848405      -0.20120688
O        1.37735210       0.19417986       0.49041786
C        0.47383344      -0.45420699      -0.36826086
C       -0.63307295      -1.06353004       0.44055494
O       -1.20306324      -0.35594284       1.51557523
C       -2.01162105      -0.82830415      -0.05129381
O       -1.97844470       1.37091192       0.00509820
H        3.10555963       1.24954786       0.53326097
H        2.11091250       1.53898581      -0.91319024
H        3.02813273       0.02768855      -0.75944120
H        0.11073190       0.26098299      -1.11694581
H        0.94247162      -1.24648621      -0.97023568
H       -0.36205354      -2.06290558       0.78829758
H       -1.28307007       0.98515718       1.32916214
H       -2.78680542      -1.47539231       0.36195905
H       -2.11994393      -0.88103390      -1.13279362
H       -1.22565405       1.96186382       0.04904215
17
Frame=15 idx=008925 GeodesicLength=1.8384609187407477 rxn_smarts="[C:1]([O:2][C:3]([C@@:4]([O:5][H:14])([C:6]([O:7][H:17])([H:15])[H:16])[H:13])([H:11])[H:12])([H:8])([H:9])[H:10]>>[C:1]([O:2][C:3]([C@@:4]1([H:13])[O:5][C:6]1([H:15])[H:16])([H:11])[H:12])([H:8])([H:9])[H:10].[O:7]([H:14])[H:17]"
C        2.42870489       0.79972620      -0.20007543
O        1.35447234       0.20641764       0.48953563
C        0.46902968      -0.46668718      -0.36996176
C       -0.64372086      -1.07204180       0.43211402
O       -1.21783569      -0.36491154       1.50797525
C       -2.02287461      -0.81090045      -0.05153109
O       -1.93949568       1.39829556       0.00971435
H        3.06370055       1.29281655       0.53376225
H        2.07967773       1.54462688      -0.92582947
H        3.01961559       0.05096588      -0.74228912
H        0.10535103       0.23114568      -1.13460172
H        0.95496355      -1.26248532      -0.95248554
H       -0.38270324      -2.07349014       0.77960149
H       -1.22269092       0.97921270       1.37674189
H       -2.79711000      -1.46874166       0.34930204
H       -2.12602757      -0.88363919      -1.13315990
H       -1.12305679       1.89969020       0.03118713
17
Frame=16 idx=008925 GeodesicLength=1.9688088403789346 rxn_smarts="[C:1]([O:2][C:3]([C@@:4]([O:5][H:14])([C:6]([O:7][H:17])([H:15])[H:16])[H:13])([H:11])[H:12])([H:8])([H:9])[H:10]>>[C:1]([O:2][C:3]([C@@:4]1([H:13])[O:5][C:6]1([H:15])[H:16])([H:11])[H:12])([H:8])([H:9])[H:10].[O:7]([H:14])[H:17]"
C        2.40422116       0.81947493      -0.19941295
O        1.33363229       0.21703652       0.48869781
C        0.46501227      -0.47846000      -0.37117807
C       -0.65404236      -1.07906763       0.42406183
O       -1.23277646      -0.37039870       1.49922319
C       -2.03313170      -0.79311328      -0.05267077
O       -1.90050852       1.42559624       0.01128498
H        3.02410082       1.33294630       0.53334362
H        2.05017313       1.54975089      -0.93743864
H        3.01132252       0.07346607      -0.72706664
H        0.10123863       0.20308257      -1.15037220
H        0.96686732      -1.27741220      -0.93476248
H       -0.40316287      -2.08202299       0.77272911
H       -1.16110493       0.97049518       1.42461856
H       -2.80661064      -1.46085744       0.33625071
H       -2.13081585      -0.88704539      -1.13400118
H       -1.03441479       1.83652893       0.01669313
