15
Frame=0 idx=008482 GeodesicLength=0.0 rxn_smarts="[C:1]([O:2][C:3](=[O:4])[C:5]([C:6]([O:7][H:15])([H:13])[H:14])([H:11])[H:12])([H:8])([H:9])[H:10]>>[C:1]([O:2][C:3]([O:4][C:6]([O:7][H:15])([H:13])[H:14])=[C:5]([H:11])[H:12])([H:8])([H:9])[H:10]"
C       -2.56576970      -0.11936668      -0.50905983
O       -1.62937038      -0.46913214       0.49798143
C       -0.42139072       0.13040684       0.43281813
O       -0.21862517       0.99353049      -0.45096589
C        0.55935434      -0.33163171       1.32242448
C        1.93279081       0.29435513      -0.76106802
O        3.03434199       0.25738487      -0.08611233
H       -2.14016979      -0.24694510      -1.50582927
H       -3.41259506      -0.78923250      -0.37278913
H       -2.88986708       0.91648631      -0.40063526
H        1.19517238       0.44602613       1.72827131
H        0.28913144      -1.12172898       2.01289856
H        1.42675231      -0.61390397      -1.04057360
H        1.78850535       1.21301577      -1.30558593
H        3.05173923      -0.55926439       0.43822529
15
Frame=1 idx=008482 GeodesicLength=0.07926558492696442 rxn_smarts="[C:1]([O:2][C:3](=[O:4])[C:5]([C:6]([O:7][H:15])([H:13])[H:14])([H:11])[H:12])([H:8])([H:9])[H:10]>>[C:1]([O:2][C:3]([O:4][C:6]([O:7][H:15])([H:13])[H:14])=[C:5]([H:11])[H:12])([H:8])([H:9])[H:10]"
C       -2.57271324      -0.11327887      -0.50709768
O       -1.63535176      -0.46417384       0.49906413
C       -0.42884161       0.13572700       0.43395420
O       -0.21746077       0.98967620      -0.45886542
C        0.56368079      -0.33853723       1.30434798
C        1.91204989       0.29054943      -0.73592543
O        3.05146362       0.24598201      -0.11819678
H       -2.15263437      -0.25561716      -1.50425847
H       -3.42578525      -0.77310230      -0.36158346
H       -2.88549503       0.92689949      -0.40751292
H        1.19391101       0.43240205       1.73086741
H        0.30432229      -1.14868889       1.97546524
H        1.42831519      -0.62325201      -1.03948535
H        1.78256081       1.19459921      -1.31048111
H        3.08197844      -0.49918509       0.49970766
15
Frame=2 idx=008482 GeodesicLength=0.15697924875762184 rxn_smarts="[C:1]([O:2][C:3](=[O:4])[C:5]([C:6]([O:7][H:15])([H:13])[H:14])([H:11])[H:12])([H:8])([H:9])[H:10]>>[C:1]([O:2][C:3]([O:4][C:6]([O:7][H:15])([H:13])[H:14])=[C:5]([H:11])[H:12])([H:8])([H:9])[H:10]"
C       -2.57676828      -0.10769021      -0.50637047
O       -1.64185529      -0.45512556       0.50367163
C       -0.43616465       0.14403438       0.43954980
O       -0.21572359       0.98977700      -0.46109502
C        0.56792315      -0.34691270       1.28781422
C        1.88965981       0.28507477      -0.71253118
O        3.06340589       0.22536265      -0.15284911
H       -2.15847848      -0.26769133      -1.50165215
H       -3.43581569      -0.75768988      -0.35247641
H       -2.87966845       0.93658262      -0.42035187
H        1.19473179       0.41444792       1.73577461
H        0.31772590      -1.17661526       1.93819032
H        1.42324584      -0.63053111      -1.04077161
H        1.77564314       1.17483666      -1.31470589
H        3.11213890      -0.42785995       0.55780314
15
Frame=3 idx=008482 GeodesicLength=0.2331516972216083 rxn_smarts="[C:1]([O:2][C:3](=[O:4])[C:5]([C:6]([O:7][H:15])([H:13])[H:14])([H:11])[H:12])([H:8])([H:9])[H:10]>>[C:1]([O:2][C:3]([O:4][C:6]([O:7][H:15])([H:13])[H:14])=[C:5]([H:11])[H:12])([H:8])([H:9])[H:10]"
C       -2.57763820      -0.10260251      -0.50685745
O       -1.64917351      -0.44093133       0.51258951
C       -0.44317719       0.15536709       0.44984099
O       -0.21315630       0.99408347      -0.45725606
C        0.57198472      -0.35720834       1.27263292
C        1.86554523       0.27730468      -0.69118016
O        3.06919015       0.19381931      -0.18849678
H       -2.15693792      -0.28433815      -1.49743483
H       -3.44269808      -0.74258327      -0.34525860
H       -2.87178944       0.94555500      -0.44035081
H        1.19773719       0.39131845       1.74293645
H        0.32882487      -1.20605824       1.90057194
H        1.41064234      -0.63610730      -1.04492517
H        1.76825875       1.15440589      -1.31706815
H        3.14238740      -0.34202475       0.61025621
15
Frame=4 idx=008482 GeodesicLength=0.30800687489435913 rxn_smarts="[C:1]([O:2][C:3](=[O:4])[C:5]([C:6]([O:7][H:15])([H:13])[H:14])([H:11])[H:12])([H:8])([H:9])[H:10]>>[C:1]([O:2][C:3]([O:4][C:6]([O:7][H:15])([H:13])[H:14])=[C:5]([H:11])[H:12])([H:8])([H:9])[H:10]"
C       -2.57551310      -0.09745702      -0.50824851
O       -1.65720590      -0.42227946       0.52511082
C       -0.44944264       0.16829036       0.46399653
O       -0.20916369       1.00146798      -0.44792446
C        0.57568322      -0.37040033       1.25842539
C        1.84001081       0.26588579      -0.67220702
O        3.06780979       0.15063051      -0.22172389
H       -2.14899371      -0.30461499      -1.49137000
H       -3.44712191      -0.72658674      -0.33973310
H       -2.86098900       0.95431835      -0.46632457
H        1.20240989       0.36211779       1.75194348
H        0.33670397      -1.23741445       1.86271979
H        1.39101108      -0.64166576      -1.05188107
H        1.76142178       1.13298520      -1.31697372
H        3.17337941      -0.23527722       0.65419031
15
Frame=5 idx=008482 GeodesicLength=0.3815830198496454 rxn_smarts="[C:1]([O:2][C:3](=[O:4])[C:5]([C:6]([O:7][H:15])([H:13])[H:14])([H:11])[H:12])([H:8])([H:9])[H:10]>>[C:1]([O:2][C:3]([O:4][C:6]([O:7][H:15])([H:13])[H:14])=[C:5]([H:11])[H:12])([H:8])([H:9])[H:10]"
C       -2.57067983      -0.09197192      -0.51035560
O       -1.66556469      -0.40066080       0.53991093
C       -0.45466451       0.18151303       0.48109515
O       -0.20333915       1.01057336      -0.43412902
C        0.57867058      -0.38641398       1.24545596
C        1.81351119       0.25053875      -0.65545197
O        3.05837442       0.09853134      -0.24585418
H       -2.13598249      -0.32697533      -1.48363531
H       -3.44959422      -0.70919408      -0.33604476
H       -2.84677978       0.96300872      -0.49635373
H        1.20814503       0.32717590       1.76248843
H        0.34080685      -1.26996810       1.82579127
H        1.36636667      -0.64855643      -1.06046826
H        1.75635634       1.11046118      -1.31438886
H        3.20437359      -0.10806163       0.68193996
15
Frame=6 idx=008482 GeodesicLength=0.45353971110956504 rxn_smarts="[C:1]([O:2][C:3](=[O:4])[C:5]([C:6]([O:7][H:15])([H:13])[H:14])([H:11])[H:12])([H:8])([H:9])[H:10]>>[C:1]([O:2][C:3]([O:4][C:6]([O:7][H:15])([H:13])[H:14])=[C:5]([H:11])[H:12])([H:8])([H:9])[H:10]"
C       -2.57143795      -0.08279398      -0.50792340
O       -1.67423256      -0.38116143       0.55249930
C       -0.45676074       0.18394616       0.48699499
O       -0.19425158       1.00649244      -0.43324286
C        0.58090858      -0.40786454       1.22811285
C        1.79515946       0.23318898      -0.63894412
O        3.04884245       0.05437563      -0.24506479
H       -2.13774890      -0.34943953      -1.47355805
H       -3.46087750      -0.68096278      -0.32137306
H       -2.82995360       0.97660436      -0.52051458
H        1.20752241       0.28857767       1.77132833
H        0.34254845      -1.30706225       1.78366919
H        1.35748299      -0.66082657      -1.06838729
H        1.76073876       1.08536810      -1.31149162
H        3.23205974       0.04155775       0.69789509
15
Frame=7 idx=008482 GeodesicLength=0.5280774679760177 rxn_smarts="[C:1]([O:2][C:3](=[O:4])[C:5]([C:6]([O:7][H:15])([H:13])[H:14])([H:11])[H:12])([H:8])([H:9])[H:10]>>[C:1]([O:2][C:3]([O:4][C:6]([O:7][H:15])([H:13])[H:14])=[C:5]([H:11])[H:12])([H:8])([H:9])[H:10]"
C       -2.56751538      -0.07525017      -0.50757004
O       -1.68291299      -0.35666392       0.56833142
C       -0.45895611       0.19156616       0.49949699
O       -0.18474926       1.00846336      -0.42471237
C        0.58154838      -0.42805694       1.21471059
C        1.77357878       0.21618911      -0.62261526
O        3.03223630       0.01261434      -0.23221907
H       -2.12980366      -0.37568494      -1.46141078
H       -3.46678653      -0.65536441      -0.31175135
H       -2.81052785       0.98691940      -0.55186000
H        1.21008106       0.24625300       1.78282942
H        0.34100897      -1.34322997       1.74242720
H        1.34403994      -0.67232189      -1.07400409
H        1.76353059       1.06076587      -1.30738654
H        3.25522776       0.18380100       0.68573387
15
Frame=8 idx=008482 GeodesicLength=0.6041299384415227 rxn_smarts="[C:1]([O:2][C:3](=[O:4])[C:5]([C:6]([O:7][H:15])([H:13])[H:14])([H:11])[H:12])([H:8])([H:9])[H:10]>>[C:1]([O:2][C:3]([O:4][C:6]([O:7][H:15])([H:13])[H:14])=[C:5]([H:11])[H:12])([H:8])([H:9])[H:10]"
C       -2.57055804      -0.06431011      -0.50254721
O       -1.69124996      -0.33567058       0.58073146
C       -0.45902350       0.18938749       0.50011699
O       -0.17353410       0.99679228      -0.43123511
C        0.58147577      -0.45121740       1.19753619
C        1.76085689       0.20042387      -0.60470618
O        3.02103319      -0.00980433      -0.19722119
H       -2.13953193      -0.40054763      -1.44752474
H       -3.48173272      -0.61969928      -0.29104337
H       -2.79106175       1.00112330      -0.57581623
H        1.20589188       0.20324331       1.79262913
H        0.33895270      -1.38249839       1.69527110
H        1.35198041      -0.68916847      -1.07535376
H        1.77369832       1.03329812      -1.30552560
H        3.27280286       0.32864783       0.66468852
15
Frame=9 idx=008482 GeodesicLength=0.6823752762060509 rxn_smarts="[C:1]([O:2][C:3](=[O:4])[C:5]([C:6]([O:7][H:15])([H:13])[H:14])([H:11])[H:12])([H:8])([H:9])[H:10]>>[C:1]([O:2][C:3]([O:4][C:6]([O:7][H:15])([H:13])[H:14])=[C:5]([H:11])[H:12])([H:8])([H:9])[H:10]"
C       -2.57234246      -0.05452480      -0.49806859
O       -1.69931738      -0.31272954       0.59384792
C       -0.45924737       0.18921773       0.50236167
O       -0.16277064       0.98656913      -0.43639227
C        0.58016974      -0.47279004       1.18213325
C        1.74796848       0.18735004      -0.58547290
O        3.00833309      -0.02372283      -0.15435831
H       -2.14735707      -0.42743600      -1.43198260
H       -3.49481054      -0.58473796      -0.27163576
H       -2.77096466       1.01257287      -0.60251182
H        1.20166561       0.15953035       1.80343392
H        0.33511073      -1.42002035       1.64735813
H        1.36256761      -0.70467193      -1.07328032
H        1.78330113       1.00750427      -1.30220215
H        3.28769374       0.45788905       0.62676983
15
Frame=10 idx=008482 GeodesicLength=0.7620354709556195 rxn_smarts="[C:1]([O:2][C:3](=[O:4])[C:5]([C:6]([O:7][H:15])([H:13])[H:14])([H:11])[H:12])([H:8])([H:9])[H:10]>>[C:1]([O:2][C:3]([O:4][C:6]([O:7][H:15])([H:13])[H:14])=[C:5]([H:11])[H:12])([H:8])([H:9])[H:10]"
C       -2.57722457      -0.04356589      -0.49156076
O       -1.70661315      -0.29151289       0.60509699
C       -0.45883950       0.18509961       0.49925193
O       -0.15191540       0.96992892      -0.44880022
C        0.57828985      -0.49487913       1.16545430
C        1.73926471       0.17636060      -0.56474869
O        2.99820350      -0.02429314      -0.10108258
H       -2.16364148      -0.45327766      -1.41516220
H       -3.51087542      -0.54559340      -0.24779885
H       -2.75160449       1.02436802      -0.62601124
H        1.19337478       0.11612180       1.81373232
H        0.33085568      -1.45732644       1.59691563
H        1.38515848      -0.72165087      -1.06725927
H        1.79596937       0.98143288      -1.29890499
H        3.29959766       0.57878761       0.58087763
15
Frame=11 idx=008482 GeodesicLength=0.8428759192095381 rxn_smarts="[C:1]([O:2][C:3](=[O:4])[C:5]([C:6]([O:7][H:15])([H:13])[H:14])([H:11])[H:12])([H:8])([H:9])[H:10]>>[C:1]([O:2][C:3]([O:4][C:6]([O:7][H:15])([H:13])[H:14])=[C:5]([H:11])[H:12])([H:8])([H:9])[H:10]"
C       -2.58501227      -0.03132739      -0.48323588
O       -1.71307733      -0.27237543       0.61431810
C       -0.45784782       0.17678516       0.49089812
O       -0.14108004       0.94641663      -0.46836649
C        0.57618565      -0.51785374       1.14737281
C        1.73438429       0.16726915      -0.54258436
O        2.98988483      -0.01173726      -0.03909368
H       -2.18850387      -0.47787697      -1.39724287
H       -3.52966292      -0.50160745      -0.21958415
H       -2.73269823       1.03656716      -0.64653154
H        1.18086756       0.07282013       1.82352120
H        0.32676824      -1.49451232       1.54434164
H        1.41951104      -0.73974362      -1.05692860
H        1.81143901       0.95510002      -1.29525621
H        3.30884186       0.69207595       0.52837190
15
Frame=12 idx=008482 GeodesicLength=0.924315420440835 rxn_smarts="[C:1]([O:2][C:3](=[O:4])[C:5]([C:6]([O:7][H:15])([H:13])[H:14])([H:11])[H:12])([H:8])([H:9])[H:10]>>[C:1]([O:2][C:3]([O:4][C:6]([O:7][H:15])([H:13])[H:14])=[C:5]([H:11])[H:12])([H:8])([H:9])[H:10]"
C       -2.59300298      -0.01951406      -0.47481018
O       -1.71888167      -0.25345392       0.62297814
C       -0.45711302       0.16827205       0.48182653
O       -0.13103243       0.92141879      -0.48937310
C        0.57352588      -0.54017399       1.12958279
C        1.73006657       0.16088254      -0.51908375
O        2.98009650       0.00959437       0.02722052
H       -2.21501674      -0.50253761      -1.37810945
H       -3.54752551      -0.45707223      -0.19136969
H       -2.71430994       1.04676985      -0.66746631
H        1.16611860       0.02953938       1.83372413
H        0.32219364      -1.52998598       1.49119478
H        1.45867622      -0.75578852      -1.04302548
H        1.82715400       0.93084499      -1.28962981
H        3.31905089       0.79120435       0.46634090
15
Frame=13 idx=008482 GeodesicLength=1.0062370307929467 rxn_smarts="[C:1]([O:2][C:3](=[O:4])[C:5]([C:6]([O:7][H:15])([H:13])[H:14])([H:11])[H:12])([H:8])([H:9])[H:10]>>[C:1]([O:2][C:3]([O:4][C:6]([O:7][H:15])([H:13])[H:14])=[C:5]([H:11])[H:12])([H:8])([H:9])[H:10]"
C       -2.60259938      -0.00698965      -0.46517292
O       -1.72381071      -0.23553696       0.63044858
C       -0.45615087       0.15703734       0.46925768
O       -0.12145553       0.89089044      -0.51568169
C        0.57081043      -0.56323770       1.11053188
C        1.72773796       0.15692084      -0.49441996
O        2.96910582       0.04340266       0.09930376
H       -2.24744254      -0.52701910      -1.35717413
H       -3.56619079      -0.40848451      -0.16007680
H       -2.69603847       1.05623588      -0.68774110
H        1.14780315      -0.01438678       1.84350165
H        0.31797906      -1.56510065       1.43617174
H        1.50688019      -0.77078954      -1.02461651
H        1.84428383       0.90760209      -1.28300690
H        3.32908785       0.87945565       0.39867473
15
Frame=14 idx=008482 GeodesicLength=1.088155072162424 rxn_smarts="[C:1]([O:2][C:3](=[O:4])[C:5]([C:6]([O:7][H:15])([H:13])[H:14])([H:11])[H:12])([H:8])([H:9])[H:10]>>[C:1]([O:2][C:3]([O:4][C:6]([O:7][H:15])([H:13])[H:14])=[C:5]([H:11])[H:12])([H:8])([H:9])[H:10]"
C       -2.61245625       0.00521928      -0.45517809
O       -1.72791324      -0.21774890       0.63739395
C       -0.45536539       0.14527944       0.45552178
O       -0.11282562       0.85755461      -0.54444408
C        0.56795501      -0.58603919       1.09098098
C        1.72551416       0.15612540      -0.46881965
O        2.95446561       0.08821905       0.17483035
H       -2.28224835      -0.55200753      -1.33426556
H       -3.58377804      -0.35831728      -0.12802031
H       -2.67809983       1.06347927      -0.70896664
H        1.12711961      -0.05890098       1.85304181
H        0.31402045      -1.59886297       1.37989935
H        1.56047559      -0.78256840      -1.00199554
H        1.86126988       0.88705802      -1.27463258
H        3.34186641       0.95151017       0.32465423
15
Frame=15 idx=008482 GeodesicLength=1.1697631330709612 rxn_smarts="[C:1]([O:2][C:3](=[O:4])[C:5]([C:6]([O:7][H:15])([H:13])[H:14])([H:11])[H:12])([H:8])([H:9])[H:10]>>[C:1]([O:2][C:3]([O:4][C:6]([O:7][H:15])([H:13])[H:14])=[C:5]([H:11])[H:12])([H:8])([H:9])[H:10]"
C       -2.62289468       0.01761331      -0.44407216
O       -1.73074885      -0.19969793       0.64388206
C       -0.45425409       0.13218081       0.43935939
O       -0.10493014       0.81903134      -0.57790104
C        0.56554873      -0.60927902       1.06973007
C        1.72368789       0.15838820      -0.44311673
O        2.93494732       0.14701477       0.25341096
H       -2.32132409      -0.57822713      -1.30805624
H       -3.60061861      -0.30412259      -0.09325214
H       -2.65984215       1.06857217      -0.73161038
H        1.10424776      -0.10482433       1.86123583
H        0.31090400      -1.63190849       1.32126092
H        1.62125347      -0.79116317      -0.97474261
H        1.87836195       0.86889893      -1.26555781
H        3.35566149       1.00752311       0.24942988
15
Frame=16 idx=008482 GeodesicLength=1.2505985449123227 rxn_smarts="[C:1]([O:2][C:3](=[O:4])[C:5]([C:6]([O:7][H:15])([H:13])[H:14])([H:11])[H:12])([H:8])([H:9])[H:10]>>[C:1]([O:2][C:3]([O:4][C:6]([O:7][H:15])([H:13])[H:14])=[C:5]([H:11])[H:12])([H:8])([H:9])[H:10]"
C       -2.63279066       0.02902271      -0.43258112
O       -1.73223954      -0.18084263       0.65034288
C       -0.45306823       0.12000704       0.42284370
O       -0.09824092       0.77816491      -0.61337008
C        0.56370401      -0.63151523       1.04744590
C        1.72048142       0.16439492      -0.41807520
O        2.90808464       0.21844455       0.33205655
H       -2.36139398      -0.60611930      -1.27844622
H       -3.61510959      -0.24880360      -0.05806666
H       -2.64189953       1.06990402      -0.75656100
H        1.08092058      -0.15134465       1.86778706
H        0.30876495      -1.66272330       1.26108689
H        1.68538068      -0.79438847      -0.94376651
H        1.89398580       0.85515768      -1.25538545
H        3.37342039       1.04064135       0.17468925
