16
Frame=0 idx=006767 GeodesicLength=0.0 rxn_smarts="[C:1](/[N:2]=[C:3](/[O:4][C:5]([C:6]([O:7][H:16])([H:14])[H:15])([H:12])[H:13])[H:11])([H:8])([H:9])[H:10]>>[C:1]([N:2]([C-:3]=[O+:4][C:5]([C:6]([O:7][H:16])([H:14])[H:15])([H:12])[H:13])[H:11])([H:8])([H:9])[H:10]"
C        1.57028001      -0.06837624      -1.24915227
N        1.84835133      -0.02553068       0.18888681
C        1.18201430       0.45456514       1.22111305
O       -0.05887428       0.93245909       1.26468359
C       -1.04445501       0.79845092       0.22311838
C       -1.81917446      -0.49050308       0.39812647
O       -1.03766764      -1.64033316       0.16254548
H        2.45417838      -0.46642102      -1.74419670
H        0.73101973      -0.73720213      -1.44716449
H        1.35605924       0.92017342      -1.66184528
H        2.44287928       0.59137243       1.09700948
H       -1.71263456       1.65086097       0.35450141
H       -0.59644579       0.85577328      -0.76541997
H       -2.26384433      -0.51109975       1.39966386
H       -2.63279776      -0.51230100      -0.33053788
H       -0.41888848      -1.75188818       0.88866813
16
Frame=1 idx=006767 GeodesicLength=0.08396242698556225 rxn_smarts="[C:1](/[N:2]=[C:3](/[O:4][C:5]([C:6]([O:7][H:16])([H:14])[H:15])([H:12])[H:13])[H:11])([H:8])([H:9])[H:10]>>[C:1]([N:2]([C-:3]=[O+:4][C:5]([C:6]([O:7][H:16])([H:14])[H:15])([H:12])[H:13])[H:11])([H:8])([H:9])[H:10]"
C        1.59081326      -0.06919194      -1.25193394
N        1.81938318      -0.04685673       0.19294224
C        1.17307741       0.47058592       1.21576924
O       -0.06895611       0.94266358       1.26374730
C       -1.06012805       0.79665012       0.22943925
C       -1.82626606      -0.49651403       0.41204824
O       -1.04526033      -1.64265038       0.15919862
H        2.46572658      -0.52207364      -1.71550825
H        0.72588873      -0.68593745      -1.50010866
H        1.44858258       0.93317190      -1.66241060
H        2.43739264       0.60794384       1.06875966
H       -1.73275409       1.64533919       0.36198727
H       -0.61488779       0.85475125      -0.76053859
H       -2.25471325      -0.52284176       1.42064376
H       -2.65195601      -0.51870909      -0.30295711
H       -0.40594269      -1.74633077       0.86892157
16
Frame=2 idx=006767 GeodesicLength=0.16805469765177297 rxn_smarts="[C:1](/[N:2]=[C:3](/[O:4][C:5]([C:6]([O:7][H:16])([H:14])[H:15])([H:12])[H:13])[H:11])([H:8])([H:9])[H:10]>>[C:1]([N:2]([C-:3]=[O+:4][C:5]([C:6]([O:7][H:16])([H:14])[H:15])([H:12])[H:13])[H:11])([H:8])([H:9])[H:10]"
C        1.61159587      -0.06984908      -1.25468072
N        1.78991101      -0.06290576       0.19519407
C        1.16360031       0.48796913       1.20900556
O       -0.07977684       0.95352841       1.26245018
C       -1.07694726       0.79492721       0.23607978
C       -1.83308770      -0.50318443       0.42622929
O       -1.05180032      -1.64460596       0.15511351
H        2.47032100      -0.58248319      -1.68596912
H        0.72342769      -0.62796338      -1.55282692
H        1.54892126       0.94166224      -1.66259180
H        2.43173463       0.62185970       1.04156052
H       -1.75465756       1.63919925       0.37063799
H       -0.63527539       0.85432580      -0.75565428
H       -2.24440251      -0.53590473       1.44188456
H       -2.67105311      -0.52641898      -0.27436166
H       -0.39251108      -1.74015625       0.84792903
16
Frame=3 idx=006767 GeodesicLength=0.2518195917983792 rxn_smarts="[C:1](/[N:2]=[C:3](/[O:4][C:5]([C:6]([O:7][H:16])([H:14])[H:15])([H:12])[H:13])[H:11])([H:8])([H:9])[H:10]>>[C:1]([N:2]([C-:3]=[O+:4][C:5]([C:6]([O:7][H:16])([H:14])[H:15])([H:12])[H:13])[H:11])([H:8])([H:9])[H:10]"
C        1.63256031      -0.07046266      -1.25725295
N        1.76036044      -0.07409545       0.19584602
C        1.15369237       0.50688430       1.20090444
O       -0.09129924       0.96499904       1.26070678
C       -1.09480308       0.79315279       0.24295490
C       -1.83949336      -0.51063028       0.44050992
O       -1.05725708      -1.64634893       0.15022640
H        2.46574871      -0.64781802      -1.65650951
H        0.72374324      -0.56207064      -1.60481748
H        1.65768955       0.94437503      -1.66100238
H        2.42597771       0.63457736       1.01541671
H       -1.77827737       1.63228368       0.38018870
H       -0.65758010       0.85441655      -0.75087011
H       -2.23280309      -0.55034564       1.46315842
H       -2.68989083      -0.53560235      -0.24492198
H       -0.37836817      -1.73331476       0.82546212
16
Frame=4 idx=006767 GeodesicLength=0.3349338235866684 rxn_smarts="[C:1](/[N:2]=[C:3](/[O:4][C:5]([C:6]([O:7][H:16])([H:14])[H:15])([H:12])[H:13])[H:11])([H:8])([H:9])[H:10]>>[C:1]([N:2]([C-:3]=[O+:4][C:5]([C:6]([O:7][H:16])([H:14])[H:15])([H:12])[H:13])[H:11])([H:8])([H:9])[H:10]"
C        1.65341358      -0.07105646      -1.25970602
N        1.73077467      -0.08077092       0.19488427
C        1.14331598       0.52726796       1.19152265
O       -0.10350062       0.97708388       1.25852071
C       -1.11354869       0.79131182       0.24998952
C       -1.84537867      -0.51880034       0.45485471
O       -1.06152269      -1.64776407       0.14443846
H        2.45113068      -0.71625025      -1.62723195
H        0.72812365      -0.48847325      -1.65626763
H        1.77400643       0.93940368      -1.65726792
H        2.42011389       0.64654880       0.99041381
H       -1.80338920       1.62459427       0.39070094
H       -0.68173515       0.85490834      -0.74628028
H       -2.21977593      -0.56603038       1.48439022
H       -2.70832775      -0.54622048      -0.21465593
H       -0.36370018      -1.72575259       0.80169446
16
Frame=5 idx=006767 GeodesicLength=0.4169123140391208 rxn_smarts="[C:1](/[N:2]=[C:3](/[O:4][C:5]([C:6]([O:7][H:16])([H:14])[H:15])([H:12])[H:13])[H:11])([H:8])([H:9])[H:10]>>[C:1]([N:2]([C-:3]=[O+:4][C:5]([C:6]([O:7][H:16])([H:14])[H:15])([H:12])[H:13])[H:11])([H:8])([H:9])[H:10]"
C        1.67410408      -0.07159194      -1.26182084
N        1.70162413      -0.08335309       0.19261333
C        1.13256168       0.54917620       1.18094643
O       -0.11628278       0.98985007       1.25560483
C       -1.13296271       0.78922064       0.25689418
C       -1.85051539      -0.52780393       0.46910847
O       -1.06446043      -1.64903671       0.13794064
H        2.42389682      -0.78721670      -1.59959670
H        0.73714847      -0.40570881      -1.70618848
H        1.89750880       0.92510545      -1.64970503
H        2.41419961       0.65871492       0.96656036
H       -1.82980474       1.61594550       0.40148421
H       -0.70755351       0.85548639      -0.74217125
H       -2.20515171      -0.58281400       1.50535835
H       -2.72603775      -0.55857839      -0.18376932
H       -0.34827456      -1.71739561       0.77674083
16
Frame=6 idx=006767 GeodesicLength=0.49757753728757576 rxn_smarts="[C:1](/[N:2]=[C:3](/[O:4][C:5]([C:6]([O:7][H:16])([H:14])[H:15])([H:12])[H:13])[H:11])([H:8])([H:9])[H:10]>>[C:1]([N:2]([C-:3]=[O+:4][C:5]([C:6]([O:7][H:16])([H:14])[H:15])([H:12])[H:13])[H:11])([H:8])([H:9])[H:10]"
C        1.69412313      -0.07201372      -1.26364814
N        1.67287673      -0.08208554       0.18904088
C        1.12148982       0.57254406       1.16932486
O       -0.12958271       1.00316113       1.25211351
C       -1.15274612       0.78685129       0.26359164
C       -1.85478008      -0.53753638       0.48317866
O       -1.06606929      -1.65012858       0.13070775
H        2.38370101      -0.85780631      -1.57361820
H        0.75258797      -0.31481231      -1.75448309
H        2.02595491       0.89931410      -1.63824650
H        2.40827761       0.67135068       0.94372158
H       -1.85708402       1.60637136       0.41264959
H       -0.73471431       0.85597153      -0.73859590
H       -2.18893519      -0.60046782       1.52588735
H       -2.74278945      -0.57247143      -0.15244130
H       -0.33231001      -1.70824206       0.75081733
16
Frame=7 idx=006767 GeodesicLength=0.5764544030060792 rxn_smarts="[C:1](/[N:2]=[C:3](/[O:4][C:5]([C:6]([O:7][H:16])([H:14])[H:15])([H:12])[H:13])[H:11])([H:8])([H:9])[H:10]>>[C:1]([N:2]([C-:3]=[O+:4][C:5]([C:6]([O:7][H:16])([H:14])[H:15])([H:12])[H:13])[H:11])([H:8])([H:9])[H:10]"
C        1.71362578      -0.07209224      -1.26490983
N        1.64521085      -0.07785627       0.18463473
C        1.11019173       0.59685011       1.15681229
O       -0.14311905       1.01719948       1.24728978
C       -1.17248162       0.78385582       0.26938682
C       -1.85799226      -0.54804575       0.49705910
O       -1.06640000      -1.65146724       0.12360106
H        2.32827349      -0.92613483      -1.55201578
H        0.77546831      -0.21432520      -1.79928554
H        2.15734916       0.86094207      -1.62081421
H        2.40241237       0.68485294       0.92206032
H       -1.88473238       1.59571816       0.42255577
H       -0.76275379       0.85539108      -0.73624361
H       -2.17102887      -0.61827261       1.54595440
H       -2.75828795      -0.58827646      -0.12075277
H       -0.31573579      -1.69833904       0.72466746
16
Frame=8 idx=006767 GeodesicLength=0.6538039708640017 rxn_smarts="[C:1](/[N:2]=[C:3](/[O:4][C:5]([C:6]([O:7][H:16])([H:14])[H:15])([H:12])[H:13])[H:11])([H:8])([H:9])[H:10]>>[C:1]([N:2]([C-:3]=[O+:4][C:5]([C:6]([O:7][H:16])([H:14])[H:15])([H:12])[H:13])[H:11])([H:8])([H:9])[H:10]"
C        1.73179159      -0.07178812      -1.26567922
N        1.61852794      -0.07066976       0.17944367
C        1.09883864       0.62203741       1.14378011
O       -0.15684054       1.03150825       1.24172872
C       -1.19175300       0.78025667       0.27440577
C       -1.86005941      -0.55916507       0.51053696
O       -1.06558942      -1.65307467       0.11643119
H        2.25853917      -0.98858978      -1.53413174
H        0.80761423      -0.10690048      -1.84030974
H        2.28820183       0.80797943      -1.59836589
H        2.39662856       0.69989340       0.90102075
H       -1.91215678       1.58407737       0.43175994
H       -0.79103241       0.85380894      -0.73487451
H       -2.15167755      -0.63615271       1.56522946
H       -2.77227185      -0.60544037      -0.08914173
H       -0.29876101      -1.68778051       0.69816625
16
Frame=9 idx=006767 GeodesicLength=0.7289685837251696 rxn_smarts="[C:1](/[N:2]=[C:3](/[O:4][C:5]([C:6]([O:7][H:16])([H:14])[H:15])([H:12])[H:13])[H:11])([H:8])([H:9])[H:10]>>[C:1]([N:2]([C-:3]=[O+:4][C:5]([C:6]([O:7][H:16])([H:14])[H:15])([H:12])[H:13])[H:11])([H:8])([H:9])[H:10]"
C        1.74931125      -0.07059279      -1.26584810
N        1.59361727      -0.06251776       0.17394374
C        1.08753923       0.64633497       1.13047180
O       -0.17014535       1.04634936       1.23395569
C       -1.20994647       0.77552651       0.27742287
C       -1.86121166      -0.57067771       0.52410287
O       -1.06456439      -1.65586220       0.11129386
H        2.17557975      -1.04112966      -1.52419147
H        0.85013391       0.00721192      -1.87488689
H        2.41381594       0.74238723      -1.56905235
H        2.39108276       0.71541390       0.88112681
H       -1.93835104       1.57161254       0.43733567
H       -0.81878723       0.84914755      -0.73576132
H       -2.13119146      -0.65222012       1.58431917
H       -2.78493890      -0.62402572      -0.05712242
H       -0.28194362      -1.67695802       0.67289008
16
Frame=10 idx=006767 GeodesicLength=0.8031332927642634 rxn_smarts="[C:1](/[N:2]=[C:3](/[O:4][C:5]([C:6]([O:7][H:16])([H:14])[H:15])([H:12])[H:13])[H:11])([H:8])([H:9])[H:10]>>[C:1]([N:2]([C-:3]=[O+:4][C:5]([C:6]([O:7][H:16])([H:14])[H:15])([H:12])[H:13])[H:11])([H:8])([H:9])[H:10]"
C        1.76487119      -0.06878014      -1.26540357
N        1.57014555      -0.05248785       0.16828029
C        1.07651790       0.67052346       1.11742038
O       -0.18325035       1.06090961       1.22555591
C       -1.22682436       0.76995482       0.27930774
C       -1.86116174      -0.58254338       0.53707541
O       -1.06281549      -1.65945766       0.10692508
H        2.08047247      -1.08190725      -1.51938529
H        0.90384140       0.12415456      -1.90320838
H        2.53176928       0.66163959      -1.53533555
H        2.38562024       0.73363447       0.86088084
H       -1.96317303       1.55825509       0.44140242
H       -0.84536642       0.84285322      -0.73774440
H       -2.10988978      -0.66757678       1.60229724
H       -2.79571432      -0.64336873      -0.02583482
H       -0.26504255      -1.66580303       0.64776669
16
Frame=11 idx=006767 GeodesicLength=0.8751677355311158 rxn_smarts="[C:1](/[N:2]=[C:3](/[O:4][C:5]([C:6]([O:7][H:16])([H:14])[H:15])([H:12])[H:13])[H:11])([H:8])([H:9])[H:10]>>[C:1]([N:2]([C-:3]=[O+:4][C:5]([C:6]([O:7][H:16])([H:14])[H:15])([H:12])[H:13])[H:11])([H:8])([H:9])[H:10]"
C        1.77994248      -0.06575416      -1.26456306
N        1.54867210      -0.04344295       0.16263054
C        1.06582304       0.69187626       1.10476143
O       -0.19539840       1.07552908       1.21452204
C       -1.24193404       0.76300558       0.27865329
C       -1.86075905      -0.59422743       0.55062935
O       -1.06244700      -1.66510071       0.10624745
H        1.97954594      -1.10657855      -1.52421219
H        0.96869276       0.24143565      -1.92269912
H        2.63641982       0.57235889      -1.49652496
H        2.38049440       0.75158225       0.84130410
H       -1.98549955       1.54459803       0.44044714
H       -0.87018043       0.83214933      -0.74236922
H       -2.08836924      -0.67946669       1.62064629
H       -2.80571325      -0.66294738       0.00627209
H       -0.24928957      -1.65501718       0.62425485
16
Frame=12 idx=006767 GeodesicLength=0.9470840542223871 rxn_smarts="[C:1](/[N:2]=[C:3](/[O:4][C:5]([C:6]([O:7][H:16])([H:14])[H:15])([H:12])[H:13])[H:11])([H:8])([H:9])[H:10]>>[C:1]([N:2]([C-:3]=[O+:4][C:5]([C:6]([O:7][H:16])([H:14])[H:15])([H:12])[H:13])[H:11])([H:8])([H:9])[H:10]"
C        1.79305279      -0.06223018      -1.26320474
N        1.52857525      -0.03372320       0.15730625
C        1.05554750       0.71247175       1.09284070
O       -0.20716362       1.08971973       1.20292548
C       -1.25550234       0.75527100       0.27682504
C       -1.85926806      -0.60603902       0.56365451
O       -1.06148717      -1.67184789       0.10699473
H        1.87133787      -1.11614385      -1.53477125
H        1.04497988       0.35685521      -1.93450831
H        2.72799875       0.47039668      -1.45489801
H        2.37534129       0.77250282       0.82051262
H       -2.00616332       1.53030164       0.43764356
H       -0.89318480       0.81979419      -0.74799044
H       -2.06655332      -0.69018680       1.63798056
H       -2.81381998      -0.68284306       0.03739513
H       -0.23369072      -1.64429903       0.60129415
16
Frame=13 idx=006767 GeodesicLength=1.0173235544967811 rxn_smarts="[C:1](/[N:2]=[C:3](/[O:4][C:5]([C:6]([O:7][H:16])([H:14])[H:15])([H:12])[H:13])[H:11])([H:8])([H:9])[H:10]>>[C:1]([N:2]([C-:3]=[O+:4][C:5]([C:6]([O:7][H:16])([H:14])[H:15])([H:12])[H:13])[H:11])([H:8])([H:9])[H:10]"
C        1.80586615      -0.05779633      -1.26177153
N        1.50977301      -0.02557787       0.15185427
C        1.04560668       0.73006213       1.08134835
O       -0.21802034       1.10372413       1.18907693
C       -1.26756510       0.74647775       0.27300585
C       -1.85779199      -0.61729573       0.57752550
O       -1.06247281      -1.68047231       0.11129776
H        1.76544691      -1.10847069      -1.55322958
H        1.13117569       0.46607926      -1.93754248
H        2.80270084       0.36476489      -1.41111425
H        2.37043881       0.79241725       0.79972883
H       -2.02454992       1.51602108       0.43081794
H       -0.91448242       0.80371813      -0.75555571
H       -2.04477418      -0.69748130       1.65597379
H       -2.82169024      -0.70203771       0.06981300
H       -0.21966107      -1.63413270       0.57877133
16
Frame=14 idx=006767 GeodesicLength=1.087663882266251 rxn_smarts="[C:1](/[N:2]=[C:3](/[O:4][C:5]([C:6]([O:7][H:16])([H:14])[H:15])([H:12])[H:13])[H:11])([H:8])([H:9])[H:10]>>[C:1]([N:2]([C-:3]=[O+:4][C:5]([C:6]([O:7][H:16])([H:14])[H:15])([H:12])[H:13])[H:11])([H:8])([H:9])[H:10]"
C        1.81743026      -0.05326086      -1.26002729
N        1.49182427      -0.01734923       0.14667624
C        1.03598986       0.74706537       1.07032928
O       -0.22858974       1.11747287       1.17459397
C       -1.27852196       0.73714617       0.26833251
C       -1.85548319      -0.62849117       0.59120352
O       -1.06306462      -1.69005308       0.11711574
H        1.65839390      -1.08525033      -1.57654621
H        1.22786504       0.56860525      -1.93276122
H        2.86169879       0.25112732      -1.36662133
H        2.36546655       0.81420193       0.77765852
H       -2.04178079       1.50130357       0.42255617
H       -0.93444160       0.78638585      -0.76379702
H       -2.02273309      -0.70356312       1.67338412
H       -2.82809975      -0.72123558       0.10178805
H       -0.20595392      -1.62410494       0.55611494
16
Frame=15 idx=006767 GeodesicLength=1.156484024107932 rxn_smarts="[C:1](/[N:2]=[C:3](/[O:4][C:5]([C:6]([O:7][H:16])([H:14])[H:15])([H:12])[H:13])[H:11])([H:8])([H:9])[H:10]>>[C:1]([N:2]([C-:3]=[O+:4][C:5]([C:6]([O:7][H:16])([H:14])[H:15])([H:12])[H:13])[H:11])([H:8])([H:9])[H:10]"
C        1.82922478      -0.04832597      -1.25841545
N        1.47431805      -0.01038731       0.14095652
C        1.02647679       0.76202458       1.05913740
O       -0.23861905       1.13123089       1.15806041
C       -1.28876875       0.72715048       0.26241488
C       -1.85332829      -0.63902886       0.60596277
O       -1.06555133      -1.70093743       0.12577333
H        1.55919225      -1.04686915      -1.60526785
H        1.33242190       0.66081708      -1.92008230
H        2.90419947       0.13824515      -1.32247874
H        2.36077325       0.83380343       0.75587814
H       -2.05776512       1.48661117       0.41172579
H       -0.95373695       0.76639153      -0.77320450
H       -2.00029935      -0.70688071       1.69167847
H       -2.83466000      -0.73947278       0.13578734
H       -0.19387765      -1.61437210       0.53207378
16
Frame=16 idx=006767 GeodesicLength=1.2254162716944317 rxn_smarts="[C:1](/[N:2]=[C:3](/[O:4][C:5]([C:6]([O:7][H:16])([H:14])[H:15])([H:12])[H:13])[H:11])([H:8])([H:9])[H:10]>>[C:1]([N:2]([C-:3]=[O+:4][C:5]([C:6]([O:7][H:16])([H:14])[H:15])([H:12])[H:13])[H:11])([H:8])([H:9])[H:10]"
C        1.84024188      -0.04386945      -1.25663248
N        1.45659951      -0.00229540       0.13491897
C        1.01699275       0.77818659       1.04747633
O       -0.24892943       1.14496264       1.14161110
C       -1.29890327       0.71728248       0.25677903
C       -1.85030044      -0.64946057       0.62046392
O       -1.06722091      -1.71166979       0.13416191
H        1.46485323      -0.99563806      -1.63536800
H        1.44544837       0.74071421      -1.90209800
H        2.93101326       0.02104479      -1.27894696
H        2.35610938       0.85423425       0.73313238
H       -2.07393295       1.47147853       0.40195829
H       -0.97310762       0.74703455      -0.78216992
H       -1.97684017      -0.71032096       1.70926918
H       -2.83997132      -0.75759591       0.16982538
H       -0.18205226      -1.60408791       0.50561886
