13
Frame=0 idx=010122 GeodesicLength=0.0 rxn_smarts="[O:1]=[C:2]1[N:3]([H:8])[C:4]([H:9])([H:10])[C@@:5]2([H:11])[C:6]([H:12])([H:13])[N:7]12>>[O:1]=[C:2]=[N:7][C:6]([C@@:5]1([H:11])[N:3]([H:8])[C:4]1([H:9])[H:10])([H:12])[H:13]"
O        1.66902701       2.09994108       0.48703916
C        0.82613319       1.23386150       0.33554302
N        1.23730610       0.03500412      -0.35736010
C        0.48768089      -1.15950628      -0.06478391
C       -0.74263400      -0.51549543      -0.55294082
C       -1.49995828       0.31602844       0.33676786
N       -0.43228838       1.24004822       0.76514347
H        2.19262625      -0.01287138      -0.68207537
H        0.47100430      -1.44507997       0.98935448
H        0.81713295      -1.98529180      -0.69408039
H       -0.83282827      -0.43466987      -1.63142691
H       -2.31989317       0.84668635      -0.14744444
H       -1.87330855      -0.21865493       1.21626400
13
Frame=1 idx=010122 GeodesicLength=0.10350666411921805 rxn_smarts="[O:1]=[C:2]1[N:3]([H:8])[C:4]([H:9])([H:10])[C@@:5]2([H:11])[C:6]([H:12])([H:13])[N:7]12>>[O:1]=[C:2]=[N:7][C:6]([C@@:5]1([H:11])[N:3]([H:8])[C:4]1([H:9])[H:10])([H:12])[H:13]"
O        1.67247968       2.11241964       0.51072099
C        0.82884783       1.25250278       0.34555066
N        1.23963894       0.02288916      -0.34339641
C        0.48380995      -1.17131895      -0.06709941
C       -0.72669523      -0.49438553      -0.56038737
C       -1.49998757       0.31535357       0.33825205
N       -0.44948954       1.27914105       0.70237606
H        2.19237703      -0.03186034      -0.67397394
H        0.45963627      -1.46550704       0.98413864
H        0.80559028      -1.99428762      -0.70394947
H       -0.82970370      -0.42244731      -1.63789620
H       -2.34900256       0.80946898      -0.13374174
H       -1.82750138      -0.21196839       1.23940617
13
Frame=2 idx=010122 GeodesicLength=0.20697149254679553 rxn_smarts="[O:1]=[C:2]1[N:3]([H:8])[C:4]([H:9])([H:10])[C@@:5]2([H:11])[C:6]([H:12])([H:13])[N:7]12>>[O:1]=[C:2]=[N:7][C:6]([C@@:5]1([H:11])[N:3]([H:8])[C:4]1([H:9])[H:10])([H:12])[H:13]"
O        1.67357293       2.12412744       0.54026283
C        0.82944299       1.27149485       0.35630190
N        1.24095080       0.01108093      -0.32940301
C        0.47997321      -1.18357397      -0.07036607
C       -0.71135893      -0.47521253      -0.56690096
C       -1.49825919       0.31578830       0.33973591
N       -0.46597587       1.31703512       0.63394962
H        2.19106846      -0.04928406      -0.66593732
H        0.44861605      -1.48752168       0.97754100
H        0.79486331      -2.00274028      -0.71546473
H       -0.82885222      -0.41422326      -1.64323890
H       -2.37481428       0.77180095      -0.11944757
H       -1.77922726      -0.19877181       1.26296731
13
Frame=3 idx=010122 GeodesicLength=0.31039335531540796 rxn_smarts="[O:1]=[C:2]1[N:3]([H:8])[C:4]([H:9])([H:10])[C@@:5]2([H:11])[C:6]([H:12])([H:13])[N:7]12>>[O:1]=[C:2]=[N:7][C:6]([C@@:5]1([H:11])[N:3]([H:8])[C:4]1([H:9])[H:10])([H:12])[H:13]"
O        1.67073525       2.13655085       0.57270438
C        0.82749957       1.29101745       0.36710714
N        1.24148679      -0.00078853      -0.31483277
C        0.47615265      -1.19650853      -0.07453459
C       -0.69654460      -0.45792316      -0.57258206
C       -1.49455940       0.31748780       0.34143512
N       -0.48081497       1.35177709       0.56248010
H        2.18912903      -0.06556248      -0.65692374
H        0.43760489      -1.51162003       0.96946767
H        0.78494899      -2.01075508      -0.72868424
H       -0.82984617      -0.40912046      -1.64740967
H       -2.39635267       0.73550680      -0.10412699
H       -1.72943935      -0.18006170       1.28589966
13
Frame=4 idx=010122 GeodesicLength=0.4138685890423699 rxn_smarts="[O:1]=[C:2]1[N:3]([H:8])[C:4]([H:9])([H:10])[C@@:5]2([H:11])[C:6]([H:12])([H:13])[N:7]12>>[O:1]=[C:2]=[N:7][C:6]([C@@:5]1([H:11])[N:3]([H:8])[C:4]1([H:9])[H:10])([H:12])[H:13]"
O        1.66327410       2.15113455       0.60482721
C        0.82297310       1.31150234       0.37688723
N        1.24154486      -0.01309395      -0.29906182
C        0.47227679      -1.21027466      -0.07941401
C       -0.68202979      -0.44224168      -0.57753216
C       -1.48896375       0.32034544       0.34353895
N       -0.49340409       1.38182822       0.49141054
H        2.18688703      -0.08127892      -0.64627514
H        0.42615625      -1.53806507       0.96000628
H        0.77574752      -2.01845470      -0.74344403
H       -0.83190727      -0.40581205      -1.65044332
H       -2.41312832       0.70212898      -0.08769177
H       -1.67942644      -0.15771849       1.30719204
13
Frame=5 idx=010122 GeodesicLength=0.5173479167383416 rxn_smarts="[O:1]=[C:2]1[N:3]([H:8])[C:4]([H:9])([H:10])[C@@:5]2([H:11])[C:6]([H:12])([H:13])[N:7]12>>[O:1]=[C:2]=[N:7][C:6]([C@@:5]1([H:11])[N:3]([H:8])[C:4]1([H:9])[H:10])([H:12])[H:13]"
O        1.65146593       2.16872506       0.63437825
C        0.81627155       1.33327900       0.38479891
N        1.24132410      -0.02607596      -0.28161402
C        0.46821052      -1.22483188      -0.08478243
C       -0.66755239      -0.42777750      -0.58183865
C       -1.48171148       0.32404132       0.34612703
N       -0.50362282       1.40664255       0.42330007
H        2.18441546      -0.09690824      -0.63379802
H        0.41379190      -1.56676115       0.94927107
H        0.76706964      -2.02581843      -0.75941187
H       -0.83426681      -0.40308376      -1.65238485
H       -2.42527609       0.67224627      -0.07028140
H       -1.63011951      -0.13367729       1.32623590
13
Frame=6 idx=010122 GeodesicLength=0.6210049981074638 rxn_smarts="[O:1]=[C:2]1[N:3]([H:8])[C:4]([H:9])([H:10])[C@@:5]2([H:11])[C:6]([H:12])([H:13])[N:7]12>>[O:1]=[C:2]=[N:7][C:6]([C@@:5]1([H:11])[N:3]([H:8])[C:4]1([H:9])[H:10])([H:12])[H:13]"
O        1.63605074       2.18952813       0.66042082
C        0.80792763       1.35656031       0.39042402
N        1.24092905      -0.03986183      -0.26227829
C        0.46394089      -1.24013102      -0.09048225
C       -0.65290711      -0.41419537      -0.58563294
C       -1.47315045       0.32831453       0.34924439
N       -0.51183941       1.42665558       0.35949540
H        2.18170838      -0.11282587      -0.61968290
H        0.40029281      -1.59752431       0.93743711
H        0.75892299      -2.03292014      -0.77633888
H       -0.83644085      -0.40018180      -1.65348852
H       -2.43344713       0.64580661      -0.05219552
H       -1.58198755      -0.10922484       1.34307755
13
Frame=7 idx=010122 GeodesicLength=0.7247746002934858 rxn_smarts="[O:1]=[C:2]1[N:3]([H:8])[C:4]([H:9])([H:10])[C@@:5]2([H:11])[C:6]([H:12])([H:13])[N:7]12>>[O:1]=[C:2]=[N:7][C:6]([C@@:5]1([H:11])[N:3]([H:8])[C:4]1([H:9])[H:10])([H:12])[H:13]"
O        1.61779829       2.21330602       0.68298914
C        0.79846139       1.38135011       0.39362700
N        1.24033121      -0.05444267      -0.24105150
C        0.45941755      -1.25601229      -0.09645371
C       -0.63798791      -0.40127753      -0.58898588
C       -1.46349495       0.33293641       0.35286139
N       -0.51842115       1.44257898       0.30009834
H        2.17867680      -0.12916823      -0.60405566
H        0.38548148      -1.63002328       0.92449940
H        0.75126667      -2.03966575      -0.79400913
H       -0.83825778      -0.39683515      -1.65384384
H       -2.43828549       0.62227712      -0.03359884
H       -1.53498611      -0.08502372       1.35792329
13
Frame=8 idx=010122 GeodesicLength=0.8287302358699882 rxn_smarts="[O:1]=[C:2]1[N:3]([H:8])[C:4]([H:9])([H:10])[C@@:5]2([H:11])[C:6]([H:12])([H:13])[N:7]12>>[O:1]=[C:2]=[N:7][C:6]([C@@:5]1([H:11])[N:3]([H:8])[C:4]1([H:9])[H:10])([H:12])[H:13]"
O        1.59725597       2.23972101       0.70251407
C        0.78825730       1.40760268       0.39435521
N        1.23946981      -0.06978655      -0.21808765
C        0.45464606      -1.27237318      -0.10270865
C       -0.62274967      -0.38889696      -0.59196557
C       -1.45291102       0.33780291       0.35696632
N       -0.52372484       1.45517477       0.24474071
H        2.17532257      -0.14601576      -0.58693515
H        0.36929106      -1.66401670       0.91042201
H        0.74416235      -2.04602948      -0.81232157
H       -0.83971795      -0.39302218      -1.65355233
H       -2.44037686       0.60116457      -0.01453513
H       -1.48892478      -0.06132513       1.37110773
13
Frame=9 idx=010122 GeodesicLength=0.9325044551653909 rxn_smarts="[O:1]=[C:2]1[N:3]([H:8])[C:4]([H:9])([H:10])[C@@:5]2([H:11])[C:6]([H:12])([H:13])[N:7]12>>[O:1]=[C:2]=[N:7][C:6]([C@@:5]1([H:11])[N:3]([H:8])[C:4]1([H:9])[H:10])([H:12])[H:13]"
O        1.57481385       2.26802742       0.71998552
C        0.77760896       1.43514290       0.39251784
N        1.23815718      -0.08574816      -0.19370478
C        0.44958051      -1.28889782      -0.10927905
C       -0.60724026      -0.37704016      -0.59459059
C       -1.44136255       0.34279790       0.36144271
N       -0.52788624       1.46490670       0.19269470
H        2.17154351      -0.16330347      -0.56823970
H        0.35178366      -1.69885770       0.89504026
H        0.73746953      -2.05171996      -0.83106826
H       -0.84111717      -0.38908069      -1.65250666
H       -2.44003653       0.58180352       0.00496912
H       -1.44331444      -0.03803049       1.38273888
13
Frame=10 idx=010122 GeodesicLength=1.0364390749172574 rxn_smarts="[O:1]=[C:2]1[N:3]([H:8])[C:4]([H:9])([H:10])[C@@:5]2([H:11])[C:6]([H:12])([H:13])[N:7]12>>[O:1]=[C:2]=[N:7][C:6]([C@@:5]1([H:11])[N:3]([H:8])[C:4]1([H:9])[H:10])([H:12])[H:13]"
O        1.55061118       2.29829446       0.73524586
C        0.76672230       1.46387258       0.38828763
N        1.23638854      -0.10236841      -0.16808331
C        0.44428799      -1.30567148      -0.11623349
C       -0.59142722      -0.36560121      -0.59693994
C       -1.42902228       0.34794336       0.36636897
N       -0.53119099       1.47234385       0.14381548
H        2.16756737      -0.18117072      -0.54773542
H        0.33293724      -1.73464827       0.87833517
H        0.73139467      -2.05691780      -0.85032920
H       -0.84243009      -0.38488602      -1.65086928
H       -2.43766384       0.56413281       0.02497068
H       -1.39817486      -0.01532314       1.39316684
13
Frame=11 idx=010122 GeodesicLength=1.1404285518351498 rxn_smarts="[O:1]=[C:2]1[N:3]([H:8])[C:4]([H:9])([H:10])[C@@:5]2([H:11])[C:6]([H:12])([H:13])[N:7]12>>[O:1]=[C:2]=[N:7][C:6]([C@@:5]1([H:11])[N:3]([H:8])[C:4]1([H:9])[H:10])([H:12])[H:13]"
O        1.52477022       2.33014990       0.74868280
C        0.75574134       1.49360223       0.38179734
N        1.23405809      -0.11959710      -0.14147402
C        0.43877835      -1.32255253      -0.12361181
C       -0.57533798      -0.35456209      -0.59904741
C       -1.41589153       0.35321514       0.37169726
N       -0.53373204       1.47779966       0.09768680
H        2.16342381      -0.19959797      -0.52529042
H        0.31282614      -1.77105119       0.86020502
H        0.72593089      -2.06152232      -0.87002037
H       -0.84384735      -0.38061940      -1.64860718
H       -2.43345718       0.54787493       0.04548008
H       -1.35326276       0.00686073       1.40250190
13
Frame=12 idx=010122 GeodesicLength=1.2444574051770967 rxn_smarts="[O:1]=[C:2]1[N:3]([H:8])[C:4]([H:9])([H:10])[C@@:5]2([H:11])[C:6]([H:12])([H:13])[N:7]12>>[O:1]=[C:2]=[N:7][C:6]([C@@:5]1([H:11])[N:3]([H:8])[C:4]1([H:9])[H:10])([H:12])[H:13]"
O        1.49738642       2.36336535       0.76042212
C        0.74475193       1.52413995       0.37334287
N        1.23111060      -0.13741932      -0.11408601
C        0.43307551      -1.33946016      -0.13142823
C       -0.55897260      -0.34389559      -0.60094154
C       -1.40200227       0.35860260       0.37739572
N       -0.53557831       1.48153237       0.05406147
H        2.15914526      -0.21855456      -0.50092220
H        0.29151130      -1.80782324       0.84060195
H        0.72110521      -2.06551494      -0.89005450
H       -0.84545529      -0.37637218      -1.64570475
H       -2.42757726       0.53287758       0.06647130
H       -1.30850051       0.02852214       1.41084180
13
Frame=13 idx=010122 GeodesicLength=1.3485179100871654 rxn_smarts="[O:1]=[C:2]1[N:3]([H:8])[C:4]([H:9])([H:10])[C@@:5]2([H:11])[C:6]([H:12])([H:13])[N:7]12>>[O:1]=[C:2]=[N:7][C:6]([C@@:5]1([H:11])[N:3]([H:8])[C:4]1([H:9])[H:10])([H:12])[H:13]"
O        1.46857263       2.39777276       0.77045747
C        0.73378096       1.55529041       0.36334856
N        1.22752291      -0.15584264      -0.08609636
C        0.42720661      -1.35633083      -0.13966659
C       -0.54231108      -0.33357194      -0.60264221
C       -1.38739646       0.36409173       0.38342500
N       -0.53676543       1.48374525       0.01279284
H        2.15472045      -0.23798607      -0.47480401
H        0.26906177      -1.84473405       0.81952372
H        0.71693494      -2.06891074      -0.91031538
H       -0.84726903      -0.37218891      -1.64214698
H       -2.42015306       0.51903863       0.08786712
H       -1.26390522       0.04962640       1.41825683
13
Frame=14 idx=010122 GeodesicLength=1.452599837055106 rxn_smarts="[O:1]=[C:2]1[N:3]([H:8])[C:4]([H:9])([H:10])[C@@:5]2([H:11])[C:6]([H:12])([H:13])[N:7]12>>[O:1]=[C:2]=[N:7][C:6]([C@@:5]1([H:11])[N:3]([H:8])[C:4]1([H:9])[H:10])([H:12])[H:13]"
O        1.43848794       2.43326733       0.77867333
C        0.72279724       1.58687219       0.35233438
N        1.22330119      -0.17489493      -0.05765639
C        0.42119583      -1.37311378      -0.14828649
C       -0.52531532      -0.32355640      -0.60415988
C       -1.37212861       0.36965611       0.38974026
N       -0.53730706       1.48460373      -0.02618466
H        2.15010463      -0.25782793      -0.44722731
H        0.24555358      -1.88156314       0.79700644
H        0.71341522      -2.07175270      -0.93066495
H       -0.84923472      -0.36806435      -1.63792220
H       -2.41129928       0.50627449       0.10954411
H       -1.21957064       0.07009937       1.42480335
13
Frame=15 idx=010122 GeodesicLength=1.5566923317768553 rxn_smarts="[O:1]=[C:2]1[N:3]([H:8])[C:4]([H:9])([H:10])[C@@:5]2([H:11])[C:6]([H:12])([H:13])[N:7]12>>[O:1]=[C:2]=[N:7][C:6]([C@@:5]1([H:11])[N:3]([H:8])[C:4]1([H:9])[H:10])([H:12])[H:13]"
O        1.40730324       2.46977025       0.78499064
C        0.71172321       1.61875430       0.34078830
N        1.21847336      -0.19461889      -0.02891486
C        0.41506091      -1.38976951      -0.15723507
C       -0.50793860      -0.31381585      -0.60549886
C       -1.35625370       0.37526385       0.39629441
N       -0.53720946       1.48425428      -0.06292358
H        2.14524408      -0.27802729      -0.41854506
H        0.22107373      -1.91809750       0.77311550
H        0.71051188      -2.07411043      -0.95095599
H       -0.85126130      -0.36397216      -1.63302135
H       -2.40112321       0.49449546       0.13136606
H       -1.17560414       0.08987348       1.43053985
13
Frame=16 idx=010122 GeodesicLength=1.6607857767271998 rxn_smarts="[O:1]=[C:2]1[N:3]([H:8])[C:4]([H:9])([H:10])[C@@:5]2([H:11])[C:6]([H:12])([H:13])[N:7]12>>[O:1]=[C:2]=[N:7][C:6]([C@@:5]1([H:11])[N:3]([H:8])[C:4]1([H:9])[H:10])([H:12])[H:13]"
O        1.37514916       2.50720208       0.78947952
C        0.70045385       1.65086902       0.32910817
N        1.21309059      -0.21506576      -0.00004346
C        0.40881296      -1.40627250      -0.16644753
C       -0.49012706      -0.30432575      -0.60666212
C       -1.33981796       0.38088867       0.40303625
N       -0.53646997       1.48283501      -0.09750189
H        2.14008633      -0.29854780      -0.38918451
H        0.19572195      -1.95412213       0.74795863
H        0.70815420      -2.07609413      -0.97103108
H       -0.85323608      -0.35989754      -1.62744162
H       -2.38972158       0.48360721       0.15319927
H       -1.13209640       0.10892362       1.43553036
