19
Frame=0 idx=011864 GeodesicLength=0.0 rxn_smarts="[C:1]([C:2]([C@@:3]1([H:13])[C:4]([H:14])([H:15])[C@:5]1([C:6]([H:16])([H:17])[H:18])[O:7][H:19])([H:11])[H:12])([H:8])([H:9])[H:10]>>[C:1](/[C:2](=[C:3](\[C:4]([C:5](=[C:6]([H:17])[H:18])[O:7][H:19])([H:14])[H:15])[H:13])[H:11])([H:8])([H:9])[H:10].[H:12][H:16]"
C        2.02836114      -0.86797572      -0.04148012
C        1.29004776       0.24325306       0.67094384
C        0.48912611       1.15287500       0.01226273
C       -0.28594019       0.89032637      -1.24146960
C       -1.41702767       0.40111747      -0.42156591
C       -1.51391536      -0.88706449       0.07578350
O       -2.30114737       1.38040343      -0.06675068
H        2.41756654      -1.59734330       0.66943388
H        2.86864358      -0.47015560      -0.61534202
H        1.38076831      -1.40584540      -0.73631104
H        1.78486147       0.62780826       1.55890383
H        0.32730668      -0.64616276       1.41785966
H        0.19448019       2.04873131       0.54560682
H        0.13731723       0.12281848      -1.88518332
H       -0.52968939       1.77982323      -1.81761624
H       -0.50891786      -0.97674061       1.16764802
H       -1.05508813      -1.68213374      -0.49996897
H       -2.43817127      -1.17341713       0.56934030
H       -2.86858183       1.05968211       0.63790530
19
Frame=1 idx=011864 GeodesicLength=0.19297259414385912 rxn_smarts="[C:1]([C:2]([C@@:3]1([H:13])[C:4]([H:14])([H:15])[C@:5]1([C:6]([H:16])([H:17])[H:18])[O:7][H:19])([H:11])[H:12])([H:8])([H:9])[H:10]>>[C:1](/[C:2](=[C:3](\[C:4]([C:5](=[C:6]([H:17])[H:18])[O:7][H:19])([H:14])[H:15])[H:13])[H:11])([H:8])([H:9])[H:10].[H:12][H:16]"
C        2.09993755      -0.83220305      -0.04388180
C        1.28549668       0.22293091       0.67004125
C        0.48208166       1.12634376       0.00392552
C       -0.30182011       0.86225527      -1.24298514
C       -1.43060676       0.41753733      -0.39524239
C       -1.58713190      -0.87170922       0.08206846
O       -2.28901393       1.42511527      -0.05369914
H        2.49812754      -1.56424157       0.65945136
H        2.94452033      -0.37942250      -0.56909580
H        1.49889760      -1.37702870      -0.77413369
H        1.74016757       0.59694688       1.58421811
H        0.34729584      -0.71891665       1.39094382
H        0.22778944       2.05358553       0.50316270
H        0.09794336       0.07487878      -1.87671866
H       -0.53125689       1.74556887      -1.83425433
H       -0.51626689      -1.04002836       1.13942159
H       -1.16852969      -1.72771821      -0.43221811
H       -2.54063614      -1.14812883       0.52575045
H       -2.85699525       1.13423449       0.66324580
19
Frame=2 idx=011864 GeodesicLength=0.3819563037832646 rxn_smarts="[C:1]([C:2]([C@@:3]1([H:13])[C:4]([H:14])([H:15])[C@:5]1([C:6]([H:16])([H:17])[H:18])[O:7][H:19])([H:11])[H:12])([H:8])([H:9])[H:10]>>[C:1](/[C:2](=[C:3](\[C:4]([C:5](=[C:6]([H:17])[H:18])[O:7][H:19])([H:14])[H:15])[H:13])[H:11])([H:8])([H:9])[H:10].[H:12][H:16]"
C        2.17549275      -0.78970820      -0.04536987
C        1.28123430       0.19874294       0.66779792
C        0.47533970       1.09694206      -0.00475182
C       -0.31887506       0.82901269      -1.24355099
C       -1.44344734       0.43214084      -0.36672156
C       -1.66283580      -0.85411519       0.09338694
O       -2.27400365       1.46957804      -0.04240651
H        2.58004591      -1.52828112       0.64760192
H        3.02202287      -0.27841456      -0.51087967
H        1.62918709      -1.33322618      -0.81822126
H        1.69142107       0.55814566       1.60909403
H        0.37055851      -0.80090588       1.35358276
H        0.26298936       2.05321265       0.45791645
H        0.05667392       0.02044767      -1.86443475
H       -0.53377642       1.70419241      -1.85200753
H       -0.52362193      -1.10822853       1.10383845
H       -1.29953089      -1.76920148      -0.35613729
H       -2.64548480      -1.11154595       0.48559140
H       -2.84338958       1.21121212       0.68567137
19
Frame=3 idx=011864 GeodesicLength=0.5652939911215098 rxn_smarts="[C:1]([C:2]([C@@:3]1([H:13])[C:4]([H:14])([H:15])[C@:5]1([C:6]([H:16])([H:17])[H:18])[O:7][H:19])([H:11])[H:12])([H:8])([H:9])[H:10]>>[C:1](/[C:2](=[C:3](\[C:4]([C:5](=[C:6]([H:17])[H:18])[O:7][H:19])([H:14])[H:15])[H:13])[H:11])([H:8])([H:9])[H:10].[H:12][H:16]"
C        2.25295932      -0.74048069      -0.04537051
C        1.27714481       0.17046395       0.66355150
C        0.46879244       1.06483768      -0.01407075
C       -0.33699163       0.79081369      -1.24357364
C       -1.45523244       0.44423117      -0.33717387
C       -1.73958862      -0.83458418       0.10939478
O       -2.25619730       1.51237507      -0.03402359
H        2.66089409      -1.49076581       0.63305765
H        3.09796523      -0.16897790      -0.43864511
H        1.76955413      -1.27099511      -0.86746152
H        1.63852266       0.50989686       1.63243482
H        0.39672443      -0.89139139       1.30346820
H        0.29893674       2.04708858       0.41011461
H        0.01436421      -0.03974443      -1.84863396
H       -0.53756608       1.65583233      -1.87099183
H       -0.53191019      -1.17995280       1.06068412
H       -1.44325021      -1.80448975      -0.26808693
H       -2.75030951      -1.06432710       0.44896129
H       -2.82481208       1.29016982       0.70636475
19
Frame=4 idx=011864 GeodesicLength=0.7410712195179842 rxn_smarts="[C:1]([C:2]([C@@:3]1([H:13])[C:4]([H:14])([H:15])[C@:5]1([C:6]([H:16])([H:17])[H:18])[O:7][H:19])([H:11])[H:12])([H:8])([H:9])[H:10]>>[C:1](/[C:2](=[C:3](\[C:4]([C:5](=[C:6]([H:17])[H:18])[O:7][H:19])([H:14])[H:15])[H:13])[H:11])([H:8])([H:9])[H:10].[H:12][H:16]"
C        2.32904767      -0.68593135      -0.04327370
C        1.27340060       0.13850664       0.65676098
C        0.46259774       1.03089366      -0.02408265
C       -0.35565485       0.74914227      -1.24339050
C       -1.46534337       0.45348946      -0.30788510
C       -1.81492537      -0.81368600       0.12869216
O       -2.23592170       1.55190955      -0.02904140
H        2.73846903      -1.45287699       0.61549234
H        3.16712927      -0.05571358      -0.35366692
H        1.91422254      -1.18990593      -0.91776190
H        1.58315649       0.45181178       1.65245768
H        0.42500927      -0.98725111       1.24005046
H        0.33442050       2.03535294       0.36096892
H       -0.02758425      -0.10320329      -1.83030239
H       -0.54276638       1.60231514      -1.89066637
H       -0.54163615      -1.25301648       1.01086055
H       -1.59209714      -1.83133230      -0.16431092
H       -2.85157868      -1.00931148       0.41378890
H       -2.79994523       1.36880707       0.72530984
19
Frame=5 idx=011864 GeodesicLength=0.9091854132547965 rxn_smarts="[C:1]([C:2]([C@@:3]1([H:13])[C:4]([H:14])([H:15])[C@:5]1([C:6]([H:16])([H:17])[H:18])[O:7][H:19])([H:11])[H:12])([H:8])([H:9])[H:10]>>[C:1](/[C:2](=[C:3](\[C:4]([C:5](=[C:6]([H:17])[H:18])[O:7][H:19])([H:14])[H:15])[H:13])[H:11])([H:8])([H:9])[H:10].[H:12][H:16]"
C        2.40116930      -0.62806273      -0.03877332
C        1.27070696       0.10398254       0.64682548
C        0.45732393       0.99625299      -0.03520375
C       -0.37480793       0.70551729      -1.24303613
C       -1.47310051       0.46014636      -0.27862732
C       -1.88641760      -0.79174288       0.15137399
O       -2.21316493       1.58752041      -0.02639820
H        2.80966111      -1.41716929       0.59402347
H        3.22744535       0.05527206      -0.25516228
H        2.05840467      -1.08919206      -0.96643818
H        1.52778074       0.38492983       1.66728921
H        0.45505906      -1.08414401       1.16440359
H        0.36941992       2.01910776       0.31082001
H       -0.06903604      -0.16768246      -1.81044814
H       -0.55025361       1.54541530      -1.91037754
H       -0.55124067      -1.32757204       0.95360259
H       -1.74036153      -1.84689121      -0.04079633
H       -2.94634851      -0.94979535       0.37692068
H       -2.77223968       1.44410749       0.74000217
19
Frame=6 idx=011864 GeodesicLength=1.0690660124700566 rxn_smarts="[C:1]([C:2]([C@@:3]1([H:13])[C:4]([H:14])([H:15])[C@:5]1([C:6]([H:16])([H:17])[H:18])[O:7][H:19])([H:11])[H:12])([H:8])([H:9])[H:10]>>[C:1](/[C:2](=[C:3](\[C:4]([C:5](=[C:6]([H:17])[H:18])[O:7][H:19])([H:14])[H:15])[H:13])[H:11])([H:8])([H:9])[H:10].[H:12][H:16]"
C        2.46651368      -0.56983752      -0.03162706
C        1.26880602       0.06773558       0.63379415
C        0.45290638       0.96211079      -0.04707447
C       -0.39374832       0.66291033      -1.24295919
C       -1.47827369       0.46467516      -0.25090799
C       -1.95239008      -0.76970471       0.17343430
O       -2.18903887       1.61823193      -0.02506574
H        2.87530440      -1.38259962       0.57038212
H        3.27394045       0.15876932      -0.15099609
H        2.19449720      -0.97688718      -1.00680389
H        1.47461054       0.31113052       1.67567137
H        0.48525939      -1.17795490       1.07971050
H        0.40286165       1.99951846       0.26123799
H       -0.10866275      -0.22900844      -1.79120089
H       -0.55981205       1.48928588      -1.92904373
H       -0.56182533      -1.40107256       0.89036791
H       -1.87910799      -1.84805131       0.10903117
H       -3.03187069      -0.89289365       0.32875047
H       -2.73996993       1.51364192       0.75329907
19
Frame=7 idx=011864 GeodesicLength=1.220581811491039 rxn_smarts="[C:1]([C:2]([C@@:3]1([H:13])[C:4]([H:14])([H:15])[C@:5]1([C:6]([H:16])([H:17])[H:18])[O:7][H:19])([H:11])[H:12])([H:8])([H:9])[H:10]>>[C:1](/[C:2](=[C:3](\[C:4]([C:5](=[C:6]([H:17])[H:18])[O:7][H:19])([H:14])[H:15])[H:13])[H:11])([H:8])([H:9])[H:10].[H:12][H:16]"
C        2.52415691      -0.51367635      -0.02174745
C        1.26786548       0.03085862       0.61773623
C        0.44976078       0.92951039      -0.05985376
C       -0.41254495       0.62343711      -1.24315091
C       -1.48057172       0.46815752      -0.22404187
C       -2.01115133      -0.74753428       0.19504332
O       -2.16414532       1.64456803      -0.02315579
H        2.93440972      -1.35009305       0.54599617
H        3.30748870       0.25020212      -0.04344501
H        2.31961795      -0.85767525      -1.03688282
H        1.42515593       0.23305531       1.67706329
H        0.51470181      -1.26553651       0.98975167
H        0.43535294       1.97815739       0.21227995
H       -0.14718652      -0.28468045      -1.77396452
H       -0.57213033       1.43677407      -1.94585868
H       -0.57133808      -1.47845242       0.81305553
H       -2.00588997      -1.82605887       0.29511563
H       -3.10445394      -0.84606106       0.26288825
H       -2.70909804       1.57504770       0.76317076
19
Frame=8 idx=011864 GeodesicLength=1.3590383613676373 rxn_smarts="[C:1]([C:2]([C@@:3]1([H:13])[C:4]([H:14])([H:15])[C@:5]1([C:6]([H:16])([H:17])[H:18])[O:7][H:19])([H:11])[H:12])([H:8])([H:9])[H:10]>>[C:1](/[C:2](=[C:3](\[C:4]([C:5](=[C:6]([H:17])[H:18])[O:7][H:19])([H:14])[H:15])[H:13])[H:11])([H:8])([H:9])[H:10].[H:12][H:16]"
C        2.57175270      -0.46428165      -0.00871302
C        1.26625103      -0.00675156       0.59957669
C        0.44773969       0.89970063      -0.07251908
C       -0.42975543       0.59282285      -1.24479832
C       -1.48032890       0.47265461      -0.20105316
C       -2.05876219      -0.72590885       0.21167366
O       -2.14120405       1.66696054      -0.02076424
H        2.98776556      -1.31775543       0.52879511
H        3.32592773       0.32639692       0.05529878
H        2.42674725      -0.74909203      -1.05206486
H        1.37985360       0.15353196       1.67193515
H        0.53912653      -1.34493600       0.89986751
H        0.46568356       1.95598065       0.16862415
H       -0.18290981      -0.32724921      -1.76335730
H       -0.58480983       1.39649894      -1.95925439
H       -0.58142389      -1.56539452       0.70787280
H       -2.10874997      -1.76112400       0.52778568
H       -3.15511786      -0.82642566       0.18489384
H       -2.68778570       1.62437179       0.76620100
19
Frame=9 idx=011864 GeodesicLength=1.4881621252189454 rxn_smarts="[C:1]([C:2]([C@@:3]1([H:13])[C:4]([H:14])([H:15])[C@:5]1([C:6]([H:16])([H:17])[H:18])[O:7][H:19])([H:11])[H:12])([H:8])([H:9])[H:10]>>[C:1](/[C:2](=[C:3](\[C:4]([C:5](=[C:6]([H:17])[H:18])[O:7][H:19])([H:14])[H:15])[H:13])[H:11])([H:8])([H:9])[H:10].[H:12][H:16]"
C        2.60796218      -0.42422247       0.00807909
C        1.26055468      -0.04821954       0.57987423
C        0.44448377       0.87139314      -0.08325099
C       -0.44389912       0.57344960      -1.25000437
C       -1.48088375       0.48051615      -0.18817934
C       -2.09210260      -0.70378704       0.22462131
O       -2.12497143       1.68752595      -0.02552796
H        3.03380002      -1.28781438       0.52133831
H        3.32841847       0.38862838       0.14473134
H        2.51588348      -0.65699117      -1.05406499
H        1.33525704       0.06914234       1.66159096
H        0.55372369      -1.42061565       0.80639711
H        0.49082483       1.93171351       0.13617431
H       -0.21469205      -0.35420513      -1.76266851
H       -0.59179366       1.37269872      -1.97064635
H       -0.60240066      -1.65723438       0.58529180
H       -2.15939583      -1.63641492       0.77316890
H       -3.17956502      -0.85055567       0.13776990
H       -2.68120403       1.66499257       0.75530524
19
Frame=10 idx=011864 GeodesicLength=1.6257068942425024 rxn_smarts="[C:1]([C:2]([C@@:3]1([H:13])[C:4]([H:14])([H:15])[C@:5]1([C:6]([H:16])([H:17])[H:18])[O:7][H:19])([H:11])[H:12])([H:8])([H:9])[H:10]>>[C:1](/[C:2](=[C:3](\[C:4]([C:5](=[C:6]([H:17])[H:18])[O:7][H:19])([H:14])[H:15])[H:13])[H:11])([H:8])([H:9])[H:10].[H:12][H:16]"
C        2.63716797      -0.38719342       0.02913069
C        1.25159887      -0.09307933       0.55586047
C        0.43908154       0.84247478      -0.09565281
C       -0.45743287       0.55648211      -1.25970077
C       -1.48348955       0.49017948      -0.18401334
C       -2.11634144      -0.68048929       0.24040685
O       -2.11297736       1.70762593      -0.03853340
H        3.06990942      -1.26468700       0.51220779
H        3.32092897       0.43934332       0.24864539
H        2.60194510      -0.55499940      -1.04854659
H        1.28650260      -0.02406822       1.64418884
H        0.56361083      -1.49571125       0.69849032
H        0.51158218       1.90495679       0.10636724
H       -0.24645646      -0.37794433      -1.76738730
H       -0.59614993       1.35266259      -1.98525124
H       -0.64249178      -1.74061974       0.48772866
H       -2.16316745      -1.48030371       0.97201009
H       -3.18880573      -0.90008145       0.14577998
H       -2.67501493       1.70545216       0.73826914
19
Frame=11 idx=011864 GeodesicLength=1.770844814386554 rxn_smarts="[C:1]([C:2]([C@@:3]1([H:13])[C:4]([H:14])([H:15])[C@:5]1([C:6]([H:16])([H:17])[H:18])[O:7][H:19])([H:11])[H:12])([H:8])([H:9])[H:10]>>[C:1](/[C:2](=[C:3](\[C:4]([C:5](=[C:6]([H:17])[H:18])[O:7][H:19])([H:14])[H:15])[H:13])[H:11])([H:8])([H:9])[H:10].[H:12][H:16]"
C        2.66082853      -0.35101766       0.05583673
C        1.24099736      -0.13871637       0.52791322
C        0.43189288       0.81318004      -0.11097743
C       -0.47193522       0.53837051      -1.27276817
C       -1.48765567       0.50049119      -0.18491722
C       -2.13676390      -0.65519542       0.26175502
O       -2.10226160       1.72801799      -0.05727738
H        3.09941885      -1.24519942       0.50163294
H        3.30272972       0.47989075       0.36723501
H        2.68531380      -0.44043066      -1.03142970
H        1.23538160      -0.12203271       1.61933239
H        0.57178059      -1.56653662       0.58074532
H        0.52961058       1.87698280       0.07375499
H       -0.28024300      -0.40327400      -1.77426877
H       -0.60073647       1.33066988      -2.00411225
H       -0.69436925      -1.81658442       0.40605506
H       -2.13482142      -1.32222348       1.11913383
H       -3.18930637      -0.95659689       0.20009005
H       -2.65986101       1.75020450       0.72226637
19
Frame=12 idx=011864 GeodesicLength=1.9195384664810233 rxn_smarts="[C:1]([C:2]([C@@:3]1([H:13])[C:4]([H:14])([H:15])[C@:5]1([C:6]([H:16])([H:17])[H:18])[O:7][H:19])([H:11])[H:12])([H:8])([H:9])[H:10]>>[C:1](/[C:2](=[C:3](\[C:4]([C:5](=[C:6]([H:17])[H:18])[O:7][H:19])([H:14])[H:15])[H:13])[H:11])([H:8])([H:9])[H:10].[H:12][H:16]"
C        2.67879651      -0.31679456       0.08723825
C        1.23019856      -0.18273619       0.49672802
C        0.42418311       0.78500824      -0.12945055
C       -0.48779807       0.52001207      -1.28794078
C       -1.49183400       0.51138449      -0.18781428
C       -2.15382359      -0.62836534       0.28737226
O       -2.09128302       1.74851938      -0.07726735
H        3.12353797      -1.22766619       0.49117480
H        3.27429517       0.50825119       0.49303264
H        2.76226669      -0.31974230      -1.00073535
H        1.18514145      -0.21886852       1.58728733
H        0.57867723      -1.62949377       0.46034492
H        0.54635655       1.84948738       0.03719208
H       -0.31645688      -0.42905765      -1.78229801
H       -0.60788250       1.30745883      -2.02571823
H       -0.75355418      -1.88646041       0.33325938
H       -2.08649553      -1.17035804       1.22822898
H       -3.17682807      -1.01726998       0.28035040
H       -2.63749738       1.79669137       0.70901548
19
Frame=13 idx=011864 GeodesicLength=2.0699421468491583 rxn_smarts="[C:1]([C:2]([C@@:3]1([H:13])[C:4]([H:14])([H:15])[C@:5]1([C:6]([H:16])([H:17])[H:18])[O:7][H:19])([H:11])[H:12])([H:8])([H:9])[H:10]>>[C:1](/[C:2](=[C:3](\[C:4]([C:5](=[C:6]([H:17])[H:18])[O:7][H:19])([H:14])[H:15])[H:13])[H:11])([H:8])([H:9])[H:10].[H:12][H:16]"
C        2.69168593      -0.28412064       0.12251138
C        1.22007610      -0.22477362       0.46202680
C        0.41668565       0.75811949      -0.15149670
C       -0.50542567       0.50133980      -1.30463969
C       -1.49509949       0.52239421      -0.19092730
C       -2.16754250      -0.60092168       0.31611649
O       -2.07900955       1.76871904      -0.09581865
H        3.14447094      -1.20978618       0.48135307
H        3.23578019       0.52497457       0.62243342
H        2.83253693      -0.19543110      -0.95584763
H        1.13655275      -0.31321711       1.54790835
H        0.58551771      -1.68480563       0.33883742
H        0.56280574       1.82270102      -0.00437760
H       -0.35563030      -0.45527998      -1.79092539
H       -0.61921754       1.28300106      -2.04928209
H       -0.81847281      -1.95152122       0.26841824
H       -2.03021065      -1.02482295       1.31054880
H       -3.14780891      -1.08017216       0.37295110
H       -2.60769452       1.84360309       0.70020997
19
Frame=14 idx=011864 GeodesicLength=2.2214747375987396 rxn_smarts="[C:1]([C:2]([C@@:3]1([H:13])[C:4]([H:14])([H:15])[C@:5]1([C:6]([H:16])([H:17])[H:18])[O:7][H:19])([H:11])[H:12])([H:8])([H:9])[H:10]>>[C:1](/[C:2](=[C:3](\[C:4]([C:5](=[C:6]([H:17])[H:18])[O:7][H:19])([H:14])[H:15])[H:13])[H:11])([H:8])([H:9])[H:10].[H:12][H:16]"
C        2.69963108      -0.25252628       0.16187873
C        1.21090670      -0.26524441       0.42352025
C        0.40961226       0.73212478      -0.17729604
C       -0.52504515       0.48224033      -1.32266358
C       -1.49714677       0.53308220      -0.19372894
C       -2.17745095      -0.57350542       0.34795609
O       -2.06502506       1.78829572      -0.11231950
H        3.16392211      -1.18913735       0.47461870
H        3.18605049       0.53194103       0.75283604
H        2.89554911      -0.07015370      -0.89584357
H        1.08932124      -0.40582366       1.50092530
H        0.59357742      -1.73372731       0.21522814
H        0.57916766       1.79619735      -0.05119925
H       -0.39802560      -0.48186212      -1.80011490
H       -0.63530084       1.25733645      -2.07441143
H       -0.88845232      -2.01344015       0.20681107
H       -1.97073110      -0.88427696       1.37381681
H       -3.10019460      -1.14202375       0.47432551
H       -2.57036568       1.89050322       0.69566056
19
Frame=15 idx=011864 GeodesicLength=2.3739889437964417 rxn_smarts="[C:1]([C:2]([C@@:3]1([H:13])[C:4]([H:14])([H:15])[C@:5]1([C:6]([H:16])([H:17])[H:18])[O:7][H:19])([H:11])[H:12])([H:8])([H:9])[H:10]>>[C:1](/[C:2](=[C:3](\[C:4]([C:5](=[C:6]([H:17])[H:18])[O:7][H:19])([H:14])[H:15])[H:13])[H:11])([H:8])([H:9])[H:10].[H:12][H:16]"
C        2.70216064      -0.22192831       0.20570818
C        1.20282237      -0.30425405       0.38152781
C        0.40279615       0.70674203      -0.20651299
C       -0.54656463       0.46261520      -1.34183427
C       -1.49806134       0.54300730      -0.19637351
C       -2.18265742      -0.54658122       0.38353883
O       -2.04985609       1.80672252      -0.12764929
H        3.18218873      -1.16470989       0.47279401
H        3.12435563       0.52995751       0.88267341
H        2.94966847       0.05449028      -0.82026177
H        1.04348416      -0.49734329       1.44652665
H        0.60419303      -1.77697887       0.08873226
H        0.59493187       1.76967914      -0.10270861
H       -0.44327408      -0.50870255      -1.80982502
H       -0.65584825       1.23048418      -2.10085388
H       -0.96391854      -2.07342838       0.14253399
H       -1.90740681      -0.74811711       1.42275435
H       -3.03256069      -1.19863269       0.58563977
H       -2.52645321       1.93697820       0.69359009
19
Frame=16 idx=011864 GeodesicLength=2.5274671096974872 rxn_smarts="[C:1]([C:2]([C@@:3]1([H:13])[C:4]([H:14])([H:15])[C@:5]1([C:6]([H:16])([H:17])[H:18])[O:7][H:19])([H:11])[H:12])([H:8])([H:9])[H:10]>>[C:1](/[C:2](=[C:3](\[C:4]([C:5](=[C:6]([H:17])[H:18])[O:7][H:19])([H:14])[H:15])[H:13])[H:11])([H:8])([H:9])[H:10].[H:12][H:16]"
C        2.69857558      -0.19244884       0.25394156
C        1.19600050      -0.34160864       0.33662546
C        0.39606038       0.68189762      -0.23858709
C       -0.56979967       0.44231663      -1.36175810
C       -1.49792692       0.55181565      -0.19888339
C       -2.18193769      -0.52044770       0.42377748
O       -2.03430777       1.82340533      -0.14265163
H        3.19884728      -1.13618830       0.47679396
H        3.05054129       0.51910438       1.01044768
H        2.99280571       0.17733907      -0.72932016
H        0.99952116      -0.58804098       1.38504976
H        0.61872087      -1.81467262      -0.04100639
H        0.60955391       1.74309327      -0.15813271
H       -0.49086319      -0.53587023      -1.81958383
H       -0.68048682       1.20231693      -2.12819874
H       -1.04655483      -2.13164469       0.07246513
H       -1.83927196      -0.61559470       1.46054526
H       -2.94273693      -1.24738645       0.70606206
H       -2.47674091       1.98261427       0.69241371
