14
Frame=0 idx=006054 GeodesicLength=0.0 rxn_smarts="[C:1]1([H:7])([H:8])[C@@:2]2([H:9])[C@:3]1([H:10])[C@@:4]1([H:11])[C:5]([H:12])([H:13])[C@@:6]21[H:14]>>[C:1]1([H:7])([H:8])[C@@:2]2([H:9])[C@:3]1([H:10])[C:4]([H:11])([H:14])[C:5]([H:12])([H:13])[C:6]2"
C        1.22338470      -0.82056368      -0.41716385
C        0.93134734       0.06294003       0.77242746
C        0.65020072       0.53478675      -0.62993061
C       -0.85671023       0.68775940      -0.41853036
C       -1.39919180      -0.50936709       0.32221437
C       -0.51356354       0.19692662       1.30444924
H        0.67228328      -1.72751235      -0.62584343
H        2.27769224      -0.89654504      -0.65052525
H        1.74610672       0.41396138       1.38895235
H        1.20816096       1.31067872      -1.13537987
H       -1.51867330       1.28974524      -1.03374863
H       -2.46101011      -0.43988075       0.53802122
H       -1.11616149      -1.48566351      -0.04570560
H       -0.84386552       1.38273430       0.63076294
14
Frame=1 idx=006054 GeodesicLength=0.054129954472904564 rxn_smarts="[C:1]1([H:7])([H:8])[C@@:2]2([H:9])[C@:3]1([H:10])[C@@:4]1([H:11])[C:5]([H:12])([H:13])[C@@:6]21[H:14]>>[C:1]1([H:7])([H:8])[C@@:2]2([H:9])[C@:3]1([H:10])[C:4]([H:11])([H:14])[C:5]([H:12])([H:13])[C:6]2"
C        1.22425977      -0.81772516      -0.41908623
C        0.93358909       0.06308302       0.77334144
C        0.65141971       0.53745618      -0.62970723
C       -0.85560184       0.68901366      -0.41811724
C       -1.39937853      -0.50927938       0.32110233
C       -0.50864939       0.18881792       1.30342756
H        0.67153486      -1.72374773      -0.62731996
H        2.27868769      -0.89619061      -0.65108957
H        1.74973429       0.41128863       1.38969385
H        1.21068552       1.31335041      -1.13377209
H       -1.51382422       1.27693729      -1.05008981
H       -2.45918523      -0.43504574       0.54586306
H       -1.12808042      -1.48949889      -0.04579974
H       -0.85519129       1.39154039       0.64155362
14
Frame=2 idx=006054 GeodesicLength=0.10824881629035282 rxn_smarts="[C:1]1([H:7])([H:8])[C@@:2]2([H:9])[C@:3]1([H:10])[C@@:4]1([H:11])[C:5]([H:12])([H:13])[C@@:6]21[H:14]>>[C:1]1([H:7])([H:8])[C@@:2]2([H:9])[C@:3]1([H:10])[C:4]([H:11])([H:14])[C:5]([H:12])([H:13])[C:6]2"
C        1.22513949      -0.81486686      -0.42103240
C        0.93584109       0.06322815       0.77422893
C        0.65264998       0.54014218      -0.62949956
C       -0.85449879       0.69033486      -0.41773018
C       -1.39955572      -0.50914489       0.31997420
C       -0.50372563       0.18073803       1.30231524
H        0.67075940      -1.71993510      -0.62884027
H        2.27967457      -0.89583048      -0.65169565
H        1.75336408       0.40861119       1.39040442
H        1.21323084       1.31604183      -1.13215369
H       -1.50867011       1.26378519      -1.06640936
H       -2.45725793      -0.43018446       0.55368213
H       -1.14017620      -1.49322183      -0.04579925
H       -0.86677509       1.40030220       0.65255543
14
Frame=3 idx=006054 GeodesicLength=0.16239081155049245 rxn_smarts="[C:1]1([H:7])([H:8])[C@@:2]2([H:9])[C@:3]1([H:10])[C@@:4]1([H:11])[C:5]([H:12])([H:13])[C@@:6]21[H:14]>>[C:1]1([H:7])([H:8])[C@@:2]2([H:9])[C@:3]1([H:10])[C:4]([H:11])([H:14])[C:5]([H:12])([H:13])[C:6]2"
C        1.22602794      -0.81199571      -0.42300479
C        0.93810246       0.06337541       0.77509386
C        0.65389169       0.54284616      -0.62931377
C       -0.85340265       0.69172696      -0.41737729
C       -1.39972312      -0.50896586       0.31882922
C       -0.49879428       0.17268779       1.30111811
H        0.66996374      -1.71608705      -0.63040897
H        2.28065841      -0.89547174      -0.65234359
H        1.75699372       0.40593290       1.39109230
H        1.21579442       1.31875714      -1.13053833
H       -1.50320822       1.25029958      -1.08269533
H       -2.45522887      -0.42529811       0.56147705
H       -1.15244914      -1.49683693      -0.04570344
H       -0.87862612       1.40902944       0.66377497
14
Frame=4 idx=006054 GeodesicLength=0.21652309635433614 rxn_smarts="[C:1]1([H:7])([H:8])[C@@:2]2([H:9])[C@:3]1([H:10])[C@@:4]1([H:11])[C:5]([H:12])([H:13])[C@@:6]21[H:14]>>[C:1]1([H:7])([H:8])[C@@:2]2([H:9])[C@:3]1([H:10])[C:4]([H:11])([H:14])[C:5]([H:12])([H:13])[C:6]2"
C        1.22692479      -0.80910663      -0.42500062
C        0.94037247       0.06352566       0.77592909
C        0.65514645       0.54556310      -0.62914854
C       -0.85231208       0.69318361      -0.41706230
C       -1.39988165      -0.50874001       0.31766302
C       -0.49385547       0.16466538       1.29982424
H        0.66914673      -1.71219336      -0.63202191
H        2.28163926      -0.89510698      -0.65302587
H        1.76062232       0.40325552       1.39174523
H        1.21837770       1.32148469      -1.12892643
H       -1.49742944       1.23647368      -1.09891506
H       -2.45309890      -0.42038499       0.56924005
H       -1.16490523      -1.50033145      -0.04550974
H       -0.89074697       1.41771177       0.67520884
14
Frame=5 idx=006054 GeodesicLength=0.27070138074694955 rxn_smarts="[C:1]1([H:7])([H:8])[C@@:2]2([H:9])[C@:3]1([H:10])[C@@:4]1([H:11])[C:5]([H:12])([H:13])[C@@:6]21[H:14]>>[C:1]1([H:7])([H:8])[C@@:2]2([H:9])[C@:3]1([H:10])[C:4]([H:11])([H:14])[C:5]([H:12])([H:13])[C:6]2"
C        1.22783318      -0.80620658      -0.42702569
C        0.94265169       0.06367738       0.77674055
C        0.65641465       0.54829882      -0.62900899
C       -0.85122924       0.69470903      -0.41679513
C       -1.40003090      -0.50846912       0.31647711
C       -0.48890856       0.15667343       1.29844210
H        0.66831310      -1.70826682      -0.63369113
H        2.28262053      -0.89474597      -0.65374963
H        1.76425053       0.40057658       1.39237640
H        1.22098123       1.32424036      -1.12731779
H       -1.49132949       1.22229975      -1.11507843
H       -2.45086646      -0.41543990       0.57697998
H       -1.17754647      -1.50371091      -0.04521430
H       -0.90315379       1.42636394       0.68686496
14
Frame=6 idx=006054 GeodesicLength=0.32484687337601537 rxn_smarts="[C:1]1([H:7])([H:8])[C@@:2]2([H:9])[C@:3]1([H:10])[C@@:4]1([H:11])[C:5]([H:12])([H:13])[C@@:6]21[H:14]>>[C:1]1([H:7])([H:8])[C@@:2]2([H:9])[C@:3]1([H:10])[C:4]([H:11])([H:14])[C:5]([H:12])([H:13])[C:6]2"
C        1.22874947      -0.80328145      -0.42907938
C        0.94493907       0.06382987       0.77751647
C        0.65770114       0.55105205      -0.62888702
C       -0.85014998       0.69629308      -0.41657205
C       -1.40017241      -0.50814622       0.31527064
C       -0.48395367       0.14871460       1.29695409
H        0.66745482      -1.70427951      -0.63541913
H        2.28359749      -0.89437370      -0.65451344
H        1.76787986       0.39787940       1.39296917
H        1.22361356       1.32701653      -1.12569393
H       -1.48489611       1.20774987      -1.13118583
H       -2.44853118      -0.41045416       0.58469645
H       -1.19037991      -1.50695909      -0.04479456
H       -0.91585216       1.43495875       0.69873853
14
Frame=7 idx=006054 GeodesicLength=0.3790295209502564 rxn_smarts="[C:1]1([H:7])([H:8])[C@@:2]2([H:9])[C@:3]1([H:10])[C@@:4]1([H:11])[C:5]([H:12])([H:13])[C@@:6]21[H:14]>>[C:1]1([H:7])([H:8])[C@@:2]2([H:9])[C@:3]1([H:10])[C:4]([H:11])([H:14])[C:5]([H:12])([H:13])[C:6]2"
C        1.22967961      -0.80034338      -0.43116361
C        0.94723455       0.06398472       0.77826370
C        0.65900478       0.55382337      -0.62879333
C       -0.84907800       0.69793843      -0.41641088
C       -1.40030528      -0.50777739       0.31404077
C       -0.47899197       0.14078973       1.29536813
H        0.66658320      -1.70025520      -0.63720841
H        2.28457735      -0.89400357      -0.65531743
H        1.77150814       0.39517377       1.39353732
H        1.22626994       1.32981959      -1.12407407
H       -1.47812853       1.19284837      -1.14720588
H       -2.44609275      -0.40543115       0.59238672
H       -1.20340468      -1.51008397      -0.04425643
H       -0.92885636       1.44351667       0.71083339
14
Frame=8 idx=006054 GeodesicLength=0.4332301679937965 rxn_smarts="[C:1]1([H:7])([H:8])[C@@:2]2([H:9])[C@:3]1([H:10])[C@@:4]1([H:11])[C:5]([H:12])([H:13])[C@@:6]21[H:14]>>[C:1]1([H:7])([H:8])[C@@:2]2([H:9])[C@:3]1([H:10])[C:4]([H:11])([H:14])[C:5]([H:12])([H:13])[C:6]2"
C        1.23062531      -0.79739099      -0.43327730
C        0.94953744       0.06414237       0.77897723
C        0.66032766       0.55660877      -0.62872942
C       -0.84801193       0.69963785      -0.41631810
C       -1.40043002      -0.50736247       0.31278414
C       -0.47402436       0.13289870       1.29367581
H        0.66570102      -1.69619061      -0.63905601
H        2.28556206      -0.89363291      -0.65615839
H        1.77513362       0.39246141       1.39407384
H        1.22895281       1.33264230      -1.12245958
H       -1.47102326       1.17760499      -1.16311164
H       -2.44355167      -0.40036937       0.60004460
H       -1.21662373      -1.51307910      -0.04359196
H       -0.94217493       1.45202905       0.72314678
14
Frame=9 idx=006054 GeodesicLength=0.4874483232618204 rxn_smarts="[C:1]1([H:7])([H:8])[C@@:2]2([H:9])[C@:3]1([H:10])[C@@:4]1([H:11])[C:5]([H:12])([H:13])[C@@:6]21[H:14]>>[C:1]1([H:7])([H:8])[C@@:2]2([H:9])[C@:3]1([H:10])[C:4]([H:11])([H:14])[C:5]([H:12])([H:13])[C:6]2"
C        1.23158954      -0.79442630      -0.43541984
C        0.95184718       0.06430352       0.77965461
C        0.66167143       0.55940486      -0.62869919
C       -0.84695118       0.70138495      -0.41630339
C       -1.40054681      -0.50690339       0.31149757
C       -0.46905192       0.12504181       1.29187217
H        0.66481330      -1.69208912      -0.64095998
H        2.28655499      -0.89326279      -0.65703362
H        1.77875435       0.38974602       1.39457646
H        1.23166325       1.33548030      -1.12085623
H       -1.46357945       1.16203825      -1.17887517
H       -2.44090817      -0.39526861       0.60766440
H       -1.23003845      -1.51594219      -0.04279481
H       -0.95581808       1.46049268       0.73567704
14
Frame=10 idx=006054 GeodesicLength=0.5416831612502486 rxn_smarts="[C:1]1([H:7])([H:8])[C@@:2]2([H:9])[C@:3]1([H:10])[C@@:4]1([H:11])[C:5]([H:12])([H:13])[C@@:6]21[H:14]>>[C:1]1([H:7])([H:8])[C@@:2]2([H:9])[C@:3]1([H:10])[C:4]([H:11])([H:14])[C:5]([H:12])([H:13])[C:6]2"
C        1.23257576      -0.79145177      -0.43759075
C        0.95416343       0.06446858       0.78029360
C        0.66303815       0.56220814      -0.62870676
C       -0.84589462       0.70317252      -0.41637670
C       -1.40065564      -0.50640228       0.31017820
C       -0.46407558       0.11721984       1.28995256
H        0.66392564      -1.68795450      -0.64291873
H        2.28756010      -0.89289483      -0.65794053
H        1.78236856       0.38703058       1.39504358
H        1.23440272       1.33832947      -1.11926947
H       -1.45579927       1.14617020      -1.19447015
H       -2.43816231      -0.39012840       0.61524094
H       -1.24364966      -1.51867154      -0.04185758
H       -0.96979729       1.46890400       0.74842179
14
Frame=11 idx=006054 GeodesicLength=0.5959510386378448 rxn_smarts="[C:1]1([H:7])([H:8])[C@@:2]2([H:9])[C@:3]1([H:10])[C@@:4]1([H:11])[C:5]([H:12])([H:13])[C@@:6]21[H:14]>>[C:1]1([H:7])([H:8])[C@@:2]2([H:9])[C@:3]1([H:10])[C:4]([H:11])([H:14])[C:5]([H:12])([H:13])[C:6]2"
C        1.23358708      -0.78847344      -0.43979071
C        0.95648716       0.06463834       0.78089633
C        0.66442992       0.56501816      -0.62875844
C       -0.84484064       0.70499608      -0.41654997
C       -1.40075596      -0.50586417       0.30882386
C       -0.45909406       0.10943439       1.28791828
H        0.66304279      -1.68379825      -0.64493329
H        2.28858084      -0.89253440      -0.65887772
H        1.78597672       0.38431972       1.39548163
H        1.23717248       1.34119270      -1.11770832
H       -1.44768923       1.13003062      -1.20987891
H       -2.43531338      -0.38495090       0.62277053
H       -1.25745888      -1.52127368      -0.04077317
H       -0.98412485       1.47726484       0.76137991
14
Frame=12 idx=006054 GeodesicLength=0.6502148607860497 rxn_smarts="[C:1]1([H:7])([H:8])[C@@:2]2([H:9])[C@:3]1([H:10])[C@@:4]1([H:11])[C:5]([H:12])([H:13])[C@@:6]21[H:14]>>[C:1]1([H:7])([H:8])[C@@:2]2([H:9])[C@:3]1([H:10])[C:4]([H:11])([H:14])[C:5]([H:12])([H:13])[C:6]2"
C        1.23462909      -0.78548475      -0.44201339
C        0.95881442       0.06481377       0.78144620
C        0.66584944       0.56781851      -0.62885396
C       -0.84378836       0.70683332      -0.41683311
C       -1.40084870      -0.50528649       0.30742799
C       -0.45411395       0.10168132       1.28574403
H        0.66217486      -1.67960496      -0.64698842
H        2.28962406      -0.89217272      -0.65983396
H        1.78956998       0.38161783       1.39586236
H        1.23997486       1.34403985      -1.11617262
H       -1.43924283       1.11363526      -1.22502616
H       -2.43236265      -0.37973192       0.63024221
H       -1.27146710      -1.52371890      -0.03954118
H       -0.99881311       1.48555990       0.77454002
14
Frame=13 idx=006054 GeodesicLength=0.7045144510629676 rxn_smarts="[C:1]1([H:7])([H:8])[C@@:2]2([H:9])[C@:3]1([H:10])[C@@:4]1([H:11])[C:5]([H:12])([H:13])[C@@:6]21[H:14]>>[C:1]1([H:7])([H:8])[C@@:2]2([H:9])[C@:3]1([H:10])[C:4]([H:11])([H:14])[C:5]([H:12])([H:13])[C:6]2"
C        1.23570554      -0.78249871      -0.44426446
C        0.96115064       0.06499235       0.78195782
C        0.66730069       0.57061948      -0.62900034
C       -0.84273310       0.70868938      -0.41723502
C       -1.40093257      -0.50467654       0.30599562
C       -0.44912728       0.09396751       1.28344946
H        0.66132406      -1.67539780      -0.64910193
H        2.29069321      -0.89182278      -0.66081632
H        1.79315681       0.37892167       1.39621459
H        1.24281178       1.34689696      -1.11466922
H       -1.43048383       1.09701316      -1.23995939
H       -2.42930656      -0.37446669       0.63766673
H       -1.28567756      -1.52603227      -0.03814891
H       -1.01388183       1.49379428       0.78791138
14
Frame=14 idx=006054 GeodesicLength=0.7588196996346432 rxn_smarts="[C:1]1([H:7])([H:8])[C@@:2]2([H:9])[C@:3]1([H:10])[C@@:4]1([H:11])[C:5]([H:12])([H:13])[C@@:6]21[H:14]>>[C:1]1([H:7])([H:8])[C@@:2]2([H:9])[C@:3]1([H:10])[C:4]([H:11])([H:14])[C:5]([H:12])([H:13])[C:6]2"
C        1.23681987      -0.77951296      -0.44654023
C        0.96349293       0.06517588       0.78241974
C        0.66878609       0.57340959      -0.62920089
C       -0.84167303       0.71054783      -0.41776567
C       -1.40100754      -0.50403478       0.30451989
C       -0.44413921       0.08629082       1.28101776
H        0.66049777      -1.67117114      -0.65126050
H        2.29179261      -0.89148118      -0.66181667
H        1.79673048       0.37623667       1.39652119
H        1.24568699       1.34974292      -1.11320321
H       -1.42141379       1.08019873      -1.25461778
H       -2.42614675      -0.36915975       0.64502806
H       -1.30008690      -1.52819987      -0.03658555
H       -1.02933953       1.50195724       0.80148386
14
Frame=15 idx=006054 GeodesicLength=0.8131449166410447 rxn_smarts="[C:1]1([H:7])([H:8])[C@@:2]2([H:9])[C@:3]1([H:10])[C@@:4]1([H:11])[C:5]([H:12])([H:13])[C@@:6]21[H:14]>>[C:1]1([H:7])([H:8])[C@@:2]2([H:9])[C@:3]1([H:10])[C:4]([H:11])([H:14])[C:5]([H:12])([H:13])[C:6]2"
C        1.23797828      -0.77653672      -0.44883720
C        0.96584218       0.06536617       0.78283201
C        0.67030732       0.57618055      -0.62946481
C       -0.84060527       0.71239755      -0.41843847
C       -1.40107233      -0.50336925       0.30299673
C       -0.43914897       0.07864852       1.27844740
H        0.65970750      -1.66694235      -0.65345530
H        2.29292941      -0.89115561      -0.66282674
H        1.80028884       0.37357734       1.39678354
H        1.24859927       1.35256887      -1.11179269
H       -1.41205438       1.06325479      -1.26896637
H       -2.42288314      -0.36381628       0.65231632
H       -1.31469066      -1.53022356      -0.03485167
H       -1.04519807       1.51004996       0.81525725
14
Frame=16 idx=006054 GeodesicLength=0.867481066620655 rxn_smarts="[C:1]1([H:7])([H:8])[C@@:2]2([H:9])[C@:3]1([H:10])[C@@:4]1([H:11])[C:5]([H:12])([H:13])[C@@:6]21[H:14]>>[C:1]1([H:7])([H:8])[C@@:2]2([H:9])[C@:3]1([H:10])[C:4]([H:11])([H:14])[C:5]([H:12])([H:13])[C:6]2"
C        1.23918687      -0.77357596      -0.45115226
C        0.96819877       0.06556378       0.78319182
C        0.67186719       0.57892332      -0.62979866
C       -0.83952579       0.71422690      -0.41926230
C       -1.40112576      -0.50268425       0.30142281
C       -0.43415668       0.07103897       1.27573413
H        0.65896401      -1.66272056      -0.65567825
H        2.29411080      -0.89085094      -0.66383905
H        1.80382911       0.37095306       1.39699851
H        1.25154984       1.35536268      -1.11044956
H       -1.40242835       1.04623504      -1.28297630
H       -2.41951604      -0.35843827       0.65952268
H       -1.32948368      -1.53210009      -0.03294349
H       -1.06147031       1.51806633       0.82922992
