16
Frame=0 idx=006865 GeodesicLength=0.0 rxn_smarts="[C:1]([N:2]1[C:3]([H:11])([H:12])[C@:4]1([C:5](=[O:6])[C:7]([H:14])([H:15])[H:16])[H:13])([H:8])([H:9])[H:10]>>[C:1]([N:2]1[C:3]([H:11])([H:12])[C@:4]1([C:5]([O:6][H:15])=[C:7]([H:14])[H:16])[H:13])([H:8])([H:9])[H:10]"
C        1.23434684      -0.10551921      -1.95326346
N        0.76740309       0.29840835      -0.64105240
C        1.24859909      -0.45796839       0.47790510
C       -0.16173768      -0.60964763       0.00337250
C       -1.26197316      -0.03676276       0.78787889
O       -2.29418163      -0.75582228       1.03805037
C       -1.39669803       1.20772871       1.44664739
H        2.18010856       0.39620042      -2.16064697
H        0.50687141       0.20472803      -2.70370521
H        1.38822988      -1.19115066      -2.04036122
H        1.90430253      -1.30456043       0.29162452
H        1.45070809       0.09967777       1.38456650
H       -0.40451756      -1.54698588      -0.49095750
H       -2.20657779       1.78861338       1.00564411
H       -2.41882353       0.20126043       1.84344687
H       -0.53606011       1.81180018       1.71085057
16
Frame=1 idx=006865 GeodesicLength=0.04794001621443693 rxn_smarts="[C:1]([N:2]1[C:3]([H:11])([H:12])[C@:4]1([C:5](=[O:6])[C:7]([H:14])([H:15])[H:16])[H:13])([H:8])([H:9])[H:10]>>[C:1]([N:2]1[C:3]([H:11])([H:12])[C@:4]1([C:5]([O:6][H:15])=[C:7]([H:14])[H:16])[H:13])([H:8])([H:9])[H:10]"
C        1.24496953      -0.10074752      -1.94966292
N        0.77129537       0.29810348      -0.63830270
C        1.23933677      -0.46902547       0.47944449
C       -0.16818493      -0.60743876      -0.00633518
C       -1.27604446      -0.02756867       0.76352610
O       -2.27736743      -0.76873227       1.07042096
C       -1.40014564       1.21493469       1.42839655
H        2.19563618       0.39561212      -2.14746167
H        0.52487417       0.21902950      -2.70329343
H        1.39178282      -1.18690438      -2.04252519
H        1.89109083      -1.31843583       0.29206141
H        1.43777161       0.08031985       1.39197078
H       -0.41378693      -1.54048793      -0.50736381
H       -2.24047926       1.78312799       1.03038237
H       -2.38343860       0.19392135       1.89332974
H       -0.53731004       1.83429185       1.64541250
16
Frame=2 idx=006865 GeodesicLength=0.09563423734943197 rxn_smarts="[C:1]([N:2]1[C:3]([H:11])([H:12])[C@:4]1([C:5](=[O:6])[C:7]([H:14])([H:15])[H:16])[H:13])([H:8])([H:9])[H:10]>>[C:1]([N:2]1[C:3]([H:11])([H:12])[C@:4]1([C:5]([O:6][H:15])=[C:7]([H:14])[H:16])[H:13])([H:8])([H:9])[H:10]"
C        1.25444265      -0.09592870      -1.94570216
N        0.77425764       0.29774158      -0.63514217
C        1.23012962      -0.47948088       0.48115003
C       -0.17450411      -0.60571138      -0.01514496
C       -1.29007872      -0.02032131       0.74106713
O       -2.26057308      -0.77996150       1.09965651
C       -1.40345587       1.22119115       1.41027065
H        2.20946746       0.39561928      -2.13436265
H        0.54130462       0.23273110      -2.70216380
H        1.39499913      -1.18241503      -2.04429767
H        1.87848570      -1.33120589       0.29250470
H        1.42453987       0.06190457       1.39929341
H       -0.42223626      -1.53470255      -0.52265057
H       -2.26976715       1.77763102       1.05410881
H       -2.34657025       0.18869117       1.93957835
H       -0.54044126       1.85421737       1.58183440
16
Frame=3 idx=006865 GeodesicLength=0.14327627326619782 rxn_smarts="[C:1]([N:2]1[C:3]([H:11])([H:12])[C@:4]1([C:5](=[O:6])[C:7]([H:14])([H:15])[H:16])[H:13])([H:8])([H:9])[H:10]>>[C:1]([N:2]1[C:3]([H:11])([H:12])[C@:4]1([C:5]([O:6][H:15])=[C:7]([H:14])[H:16])[H:13])([H:8])([H:9])[H:10]"
C        1.26299974      -0.09097958      -1.94139683
N        0.77651124       0.29732616      -0.63156552
C        1.22102391      -0.48960218       0.48301003
C       -0.18071510      -0.60440386      -0.02319501
C       -1.30393600      -0.01475855       0.72041854
O       -2.24392414      -0.78977395       1.12643058
C       -1.40675214       1.22666470       1.39228187
H        2.22203018       0.39609029      -2.12121625
H        0.55651336       0.24625625      -2.70037430
H        1.39781134      -1.17765458      -2.04581674
H        1.86635729      -1.34328849       0.29291042
H        1.41119397       0.04404622       1.40657666
H       -0.43012705      -1.52945260      -0.53707858
H       -2.29536236       1.77198300       1.07685516
H       -2.30814555       0.18526694       1.98291982
H       -0.54547870       1.87228023       1.51924016
16
Frame=4 idx=006865 GeodesicLength=0.1907243260210687 rxn_smarts="[C:1]([N:2]1[C:3]([H:11])([H:12])[C@:4]1([C:5](=[O:6])[C:7]([H:14])([H:15])[H:16])[H:13])([H:8])([H:9])[H:10]>>[C:1]([N:2]1[C:3]([H:11])([H:12])[C@:4]1([C:5]([O:6][H:15])=[C:7]([H:14])[H:16])[H:13])([H:8])([H:9])[H:10]"
C        1.27050986      -0.08599263      -1.93688314
N        0.77804659       0.29688244      -0.62769914
C        1.21224525      -0.49916621       0.48497735
C       -0.18664195      -0.60358278      -0.03035220
C       -1.31743234      -0.01074505       0.70153727
O       -2.22793937      -0.79833059       1.15047507
C       -1.40991688       1.23124059       1.37479044
H        2.23302329       0.39720466      -2.10843502
H        0.57013375       0.25910926      -2.69803085
H        1.40038396      -1.17270286      -2.04699257
H        1.85509137      -1.35434513       0.29327431
H        1.39814328       0.02710224       1.41364622
H       -0.43720561      -1.52493805      -0.55029605
H       -2.31692693       1.76680941       1.09815012
H       -2.26980039       0.18378095       2.02259278
H       -0.55171390       1.88767373       1.45924541
16
Frame=5 idx=006865 GeodesicLength=0.23815513073530709 rxn_smarts="[C:1]([N:2]1[C:3]([H:11])([H:12])[C@:4]1([C:5](=[O:6])[C:7]([H:14])([H:15])[H:16])[H:13])([H:8])([H:9])[H:10]>>[C:1]([N:2]1[C:3]([H:11])([H:12])[C@:4]1([C:5]([O:6][H:15])=[C:7]([H:14])[H:16])[H:13])([H:8])([H:9])[H:10]"
C        1.27723549      -0.08092316      -1.93214445
N        0.77903707       0.29641798      -0.62354849
C        1.20373539      -0.50841089       0.48701716
C       -0.19237648      -0.60316304      -0.03685066
C       -1.33064442      -0.00799893       0.68410405
O       -2.21241025      -0.80594738       1.17255303
C       -1.41306442       1.23514848       1.35765254
H        2.24289582       0.39880519      -2.09578016
H        0.58257752       0.27164951      -2.69517813
H        1.40271556      -1.16758847      -2.04794058
H        1.84447890      -1.36478144       0.29355425
H        1.38534507       0.01072300       1.42056074
H       -0.44373481      -1.52099524      -0.56268856
H       -2.33544768       1.76199163       1.11834299
H       -2.23112245       0.18394542       2.05942409
H       -0.55922031       1.90112734       1.40092217
16
Frame=6 idx=006865 GeodesicLength=0.28558251937050005 rxn_smarts="[C:1]([N:2]1[C:3]([H:11])([H:12])[C@:4]1([C:5](=[O:6])[C:7]([H:14])([H:15])[H:16])[H:13])([H:8])([H:9])[H:10]>>[C:1]([N:2]1[C:3]([H:11])([H:12])[C@:4]1([C:5]([O:6][H:15])=[C:7]([H:14])[H:16])[H:13])([H:8])([H:9])[H:10]"
C        1.28334904      -0.07576327      -1.92719570
N        0.77957958       0.29589676      -0.61912403
C        1.19536091      -0.51743636       0.48911027
C       -0.19795453      -0.60304142      -0.04282064
C       -1.34355463      -0.00632825       0.66794085
O       -2.19712492      -0.81272349       1.19319756
C       -1.41622422       1.23843139       1.34079881
H        2.25187151       0.40074319      -2.08315348
H        0.59418537       0.28401621      -2.69186924
H        1.40482188      -1.16224424      -2.04874951
H        1.83425313      -1.37472080       0.29371849
H        1.37262463      -0.00530872       1.42736769
H       -0.44982419      -1.51739157      -0.57447467
H       -2.35139649       1.75732430       1.13756876
H       -2.19190425       0.18566322       2.09391610
H       -0.56806283       1.91288304       1.34376875
16
Frame=7 idx=006865 GeodesicLength=0.33314145578523924 rxn_smarts="[C:1]([N:2]1[C:3]([H:11])([H:12])[C@:4]1([C:5](=[O:6])[C:7]([H:14])([H:15])[H:16])[H:13])([H:8])([H:9])[H:10]>>[C:1]([N:2]1[C:3]([H:11])([H:12])[C@:4]1([C:5]([O:6][H:15])=[C:7]([H:14])[H:16])[H:13])([H:8])([H:9])[H:10]"
C        1.28897199      -0.07045120      -1.92202944
N        0.77976082       0.29533657      -0.61443205
C        1.18714306      -0.52639615       0.49124126
C       -0.20343713      -0.60321915      -0.04836019
C       -1.35626113      -0.00563498       0.65289068
O       -2.18197836      -0.81890763       1.21289732
C       -1.41945970       1.24123809       1.32408981
H        2.26017266       0.40304248      -2.07045487
H        0.60509942       0.29642167      -2.68812549
H        1.40673546      -1.15667526      -2.04945565
H        1.82438584      -1.38441570       0.29375176
H        1.36003909      -0.02121230       1.43409546
H       -0.45563853      -1.51411669      -0.58580731
H       -2.36527386       1.75288841       1.15592458
H       -2.15204622       0.18886597       2.12639668
H       -0.57821341       1.92323588       1.28737746
16
Frame=8 idx=006865 GeodesicLength=0.3808773335353064 rxn_smarts="[C:1]([N:2]1[C:3]([H:11])([H:12])[C@:4]1([C:5](=[O:6])[C:7]([H:14])([H:15])[H:16])[H:13])([H:8])([H:9])[H:10]>>[C:1]([N:2]1[C:3]([H:11])([H:12])[C@:4]1([C:5]([O:6][H:15])=[C:7]([H:14])[H:16])[H:13])([H:8])([H:9])[H:10]"
C        1.29420583      -0.06496085      -1.91663006
N        0.77963712       0.29471929      -0.60945969
C        1.17901833      -0.53538448       0.49339883
C       -0.20885746      -0.60365843      -0.05354667
C       -1.36878603      -0.00583454       0.63885219
O       -2.16681740      -0.82456950       1.23199365
C       -1.42279701       1.24361204       1.30745502
H        2.26795153       0.40563220      -2.05758104
H        0.61551618       0.30901854      -2.68394093
H        1.40845077      -1.15084051      -2.05011139
H        1.81473783      -1.39399301       0.29362510
H        1.34750644      -0.03715562       1.44077453
H       -0.46126413      -1.51106683      -0.59682465
H       -2.37738271       1.74858838       1.17353166
H       -2.11134106       0.19353583       2.15714405
H       -0.58977822       1.93235748       1.23131940
16
Frame=9 idx=006865 GeodesicLength=0.42884845771487945 rxn_smarts="[C:1]([N:2]1[C:3]([H:11])([H:12])[C@:4]1([C:5](=[O:6])[C:7]([H:14])([H:15])[H:16])[H:13])([H:8])([H:9])[H:10]>>[C:1]([N:2]1[C:3]([H:11])([H:12])[C@:4]1([C:5]([O:6][H:15])=[C:7]([H:14])[H:16])[H:13])([H:8])([H:9])[H:10]"
C        1.29911571      -0.05924487      -1.91096715
N        0.77924972       0.29403200      -0.60417947
C        1.17095755      -0.54450854       0.49557677
C       -0.21424411      -0.60435379      -0.05843348
C       -1.38116189      -0.00688803       0.62575140
O       -2.15148235      -0.82978703       1.25080359
C       -1.42627082       1.24560796       1.29078319
H        2.27531352       0.40850243      -2.04443135
H        0.62554937       0.32196498      -2.67928109
H        1.40996482      -1.14469297      -2.05074909
H        1.80522941      -1.40359334       0.29330710
H        1.33498958      -0.05332383       1.44743685
H       -0.46677866      -1.50818890      -0.60763043
H       -2.38796867       1.74439668       1.19044042
H       -2.06961314       0.19972250       2.18632907
H       -0.60285005       1.94035474       1.17524365
16
Frame=10 idx=006865 GeodesicLength=0.47711506585692753 rxn_smarts="[C:1]([N:2]1[C:3]([H:11])([H:12])[C@:4]1([C:5](=[O:6])[C:7]([H:14])([H:15])[H:16])[H:13])([H:8])([H:9])[H:10]>>[C:1]([N:2]1[C:3]([H:11])([H:12])[C@:4]1([C:5]([O:6][H:15])=[C:7]([H:14])[H:16])[H:13])([H:8])([H:9])[H:10]"
C        1.30376916      -0.05327300      -1.90502117
N        0.77864063       0.29326154      -0.59856511
C        1.16293517      -0.55385585       0.49776690
C       -0.21961906      -0.60529556      -0.06306182
C       -1.39341372      -0.00875990       0.61354778
O       -2.13585974      -0.83458742       1.26956189
C       -1.42991014       1.24726052       1.27402455
H        2.28236562       0.41162201      -2.03092956
H        0.63531790       0.33538512      -2.67411899
H        1.41128052      -1.13819639      -2.05141122
H        1.79579032      -1.41332923       0.29275671
H        1.32245271      -0.06986986       1.45411132
H       -0.47224681      -1.50542877      -0.61831655
H       -2.39722353       1.74026958       1.20674285
H       -2.02669517       0.20748102       2.21408742
H       -0.61758387       1.94731620       1.11882500
16
Frame=11 idx=006865 GeodesicLength=0.5258370687061277 rxn_smarts="[C:1]([N:2]1[C:3]([H:11])([H:12])[C@:4]1([C:5](=[O:6])[C:7]([H:14])([H:15])[H:16])[H:13])([H:8])([H:9])[H:10]>>[C:1]([N:2]1[C:3]([H:11])([H:12])[C@:4]1([C:5]([O:6][H:15])=[C:7]([H:14])[H:16])[H:13])([H:8])([H:9])[H:10]"
C        1.30829205      -0.04698120      -1.89877632
N        0.77787782       0.29239947      -0.59258827
C        1.15493131      -0.56359241       0.49995404
C       -0.22502921      -0.60647769      -0.06748593
C       -1.40561831      -0.01144657       0.60223918
O       -2.11977568      -0.83901660       1.28867763
C       -1.43380209       1.24864734       1.25707080
H        2.28933946       0.41491924      -2.01696885
H        0.64503689       0.34956500      -2.66842979
H        1.41238709      -1.13130725      -2.05218280
H        1.78634192      -1.42343964       0.29192133
H        1.30985252      -0.08704583       1.46082657
H       -0.47777535      -1.50273037      -0.62899595
H       -2.40545431       1.73617455       1.22264498
H       -1.98224566       0.21691299       2.24063936
H       -0.63435844       1.95341896       1.06145401
16
Frame=12 idx=006865 GeodesicLength=0.5748785066724257 rxn_smarts="[C:1]([N:2]1[C:3]([H:11])([H:12])[C@:4]1([C:5](=[O:6])[C:7]([H:14])([H:15])[H:16])[H:13])([H:8])([H:9])[H:10]>>[C:1]([N:2]1[C:3]([H:11])([H:12])[C@:4]1([C:5]([O:6][H:15])=[C:7]([H:14])[H:16])[H:13])([H:8])([H:9])[H:10]"
C        1.31247089      -0.04033411      -1.89205094
N        0.77687221       0.29138862      -0.58609597
C        1.14688160      -0.57366448       0.50217121
C       -0.23041855      -0.60793797      -0.07167648
C       -1.41759240      -0.01500553       0.59176987
O       -2.10299548      -0.84301882       1.30801573
C       -1.43776465       1.24964474       1.23980411
H        2.29584604       0.41853969      -2.00232593
H        0.65447015       0.36439209      -2.66195205
H        1.41314233      -1.12386678      -2.05296841
H        1.77677882      -1.43372443       0.29075085
H        1.29715019      -0.10487892       1.46764046
H       -0.48330665      -1.50005624      -0.63970486
H       -2.41230399       1.73203028       1.23770131
H       -1.93634023       0.22824161       2.26561967
H       -0.65289028       1.95825025       1.00330142
16
Frame=13 idx=006865 GeodesicLength=0.6243389399615222 rxn_smarts="[C:1]([N:2]1[C:3]([H:11])([H:12])[C@:4]1([C:5](=[O:6])[C:7]([H:14])([H:15])[H:16])[H:13])([H:8])([H:9])[H:10]>>[C:1]([N:2]1[C:3]([H:11])([H:12])[C@:4]1([C:5]([O:6][H:15])=[C:7]([H:14])[H:16])[H:13])([H:8])([H:9])[H:10]"
C        1.31649214      -0.03335723      -1.88506263
N        0.77572848       0.29027883      -0.57924153
C        1.13895457      -0.58412027       0.50436260
C       -0.23578115      -0.60970319      -0.07558266
C       -1.42950750      -0.01934261       0.58219854
O       -2.08592683      -0.84660466       1.32762815
C       -1.44194138       1.25033975       1.22245765
H        2.30218825       0.42246870      -1.98738369
H        0.66370790       0.37987617      -2.65491669
H        1.41378520      -1.11601508      -2.05386913
H        1.76738124      -1.44433532       0.28922399
H        1.28452926      -0.12337090       1.47446674
H       -0.48881289      -1.49753367      -0.65028405
H       -2.41805738       1.72818307       1.25216314
H       -1.88945346       0.24141373       2.28916581
H       -0.67328645       1.96182271       0.94467375
16
Frame=14 idx=006865 GeodesicLength=0.6740922846130858 rxn_smarts="[C:1]([N:2]1[C:3]([H:11])([H:12])[C@:4]1([C:5](=[O:6])[C:7]([H:14])([H:15])[H:16])[H:13])([H:8])([H:9])[H:10]>>[C:1]([N:2]1[C:3]([H:11])([H:12])[C@:4]1([C:5]([O:6][H:15])=[C:7]([H:14])[H:16])[H:13])([H:8])([H:9])[H:10]"
C        1.32023410      -0.02603439      -1.87770152
N        0.77441869       0.28906547      -0.57196305
C        1.13116731      -0.59493948       0.50654598
C       -0.24109615      -0.61175164      -0.07919266
C       -1.44129471      -0.02442830       0.57344987
O       -2.06849041      -0.84974258       1.34737628
C       -1.44621442       1.25066922       1.20497748
H        2.30822034       0.42668463      -1.97201471
H        0.67260561       0.39602360      -2.64718453
H        1.41416775      -1.10768207      -2.05478694
H        1.75814244      -1.45520363       0.28735975
H        1.27206986      -0.14254135       1.48129689
H       -0.49429379      -1.49510311      -0.66070938
H       -2.42261616       1.72461032       1.26582205
H       -1.84157826       0.25643796       2.31105694
H       -0.69544220       1.96393536       0.88566754
16
Frame=15 idx=006865 GeodesicLength=0.7241519135562335 rxn_smarts="[C:1]([N:2]1[C:3]([H:11])([H:12])[C@:4]1([C:5](=[O:6])[C:7]([H:14])([H:15])[H:16])[H:13])([H:8])([H:9])[H:10]>>[C:1]([N:2]1[C:3]([H:11])([H:12])[C@:4]1([C:5]([O:6][H:15])=[C:7]([H:14])[H:16])[H:13])([H:8])([H:9])[H:10]"
C        1.32360860      -0.01839755      -1.87000033
N        0.77289865       0.28771813      -0.56424359
C        1.12349897      -0.60601006       0.50873974
C       -0.24630300      -0.61413245      -0.08248264
C       -1.45286237      -0.03028066       0.56547085
O       -2.05073329      -0.85239278       1.36709990
C       -1.45051529       1.25056345       1.18739714
H        2.31372430       0.43130812      -1.95629728
H        0.68102320       0.41260416      -2.63877008
H        1.41432975      -1.09884940      -2.05575862
H        1.74909453      -1.46610330       0.28512494
H        1.25974929      -0.16226304       1.48818554
H       -0.49962194      -1.49283687      -0.67098179
H       -2.42582636       1.72143725       1.27839429
H       -1.79319514       0.27345199       2.33115663
H       -0.71886988       1.96418301       0.82696529
16
Frame=16 idx=006865 GeodesicLength=0.774375516865761 rxn_smarts="[C:1]([N:2]1[C:3]([H:11])([H:12])[C@:4]1([C:5](=[O:6])[C:7]([H:14])([H:15])[H:16])[H:13])([H:8])([H:9])[H:10]>>[C:1]([N:2]1[C:3]([H:11])([H:12])[C@:4]1([C:5]([O:6][H:15])=[C:7]([H:14])[H:16])[H:13])([H:8])([H:9])[H:10]"
C        1.32661466      -0.01043746      -1.86199559
N        0.77119518       0.28628675      -0.55615729
C        1.11602924      -0.61734042       0.51091941
C       -0.25138836      -0.61682920      -0.08539838
C       -1.46422910      -0.03679999       0.55825305
O       -2.03284876      -0.85460471       1.38670149
C       -1.45481183       1.25004196       1.16979459
H        2.31873632       0.43633172      -1.94038645
H        0.68890315       0.42964624      -2.62970623
H        1.41427379      -1.08955624      -2.05669175
H        1.74033686      -1.47709400       0.28256831
H        1.24770147      -0.18253799       1.49502466
H       -0.50479154      -1.49075545      -0.68092200
H       -2.42779272       1.71877798       1.28975415
H       -1.74452372       0.29226015       2.34942396
H       -0.74340464       1.96261066       0.76881808
