15
Frame=0 idx=007244 GeodesicLength=0.0 rxn_smarts="[C:1]([n:2]1[c:3]([H:11])[n:4][c:5]([C:6]([H:12])([H:13])[H:14])[c:7]1[H:15])([H:8])([H:9])[H:10]>>[C:1]([N:2]=[C:3]([N:4]=[C:5]=[C:7]([C:6]([H:12])([H:13])[H:14])[H:15])[H:11])([H:8])([H:9])[H:10]"
C       -1.89297773      -0.17176850      -0.49313155
N       -0.73836611       0.09075625       0.33125865
C       -0.32794448      -0.61056185       1.42957299
N        0.85230775      -0.30888434       1.84776390
C        1.34647030       0.76484793       1.02567258
C        1.78813296       0.05362567      -0.64773144
C        0.34724528       0.89937176       0.02857528
H       -1.64171192      -0.80057491      -1.35232801
H       -2.65200783      -0.68184195       0.09870789
H       -2.31667966       0.76485990      -0.85604600
H       -0.98241496      -1.35048284       1.87935274
H        2.46663846      -0.59854997      -0.10978097
H        1.18709424      -0.57050283      -1.31903351
H        2.34600297       0.80295667      -1.19549642
H        0.21821068       1.71674901      -0.66735608
15
Frame=1 idx=007244 GeodesicLength=0.14326322711093564 rxn_smarts="[C:1]([n:2]1[c:3]([H:11])[n:4][c:5]([C:6]([H:12])([H:13])[H:14])[c:7]1[H:15])([H:8])([H:9])[H:10]>>[C:1]([N:2]=[C:3]([N:4]=[C:5]=[C:7]([C:6]([H:12])([H:13])[H:14])[H:15])[H:11])([H:8])([H:9])[H:10]"
C       -1.91988521      -0.17503331      -0.48571653
N       -0.75320803       0.08143826       0.32382028
C       -0.34984061      -0.61936635       1.42081277
N        0.83791825      -0.32601665       1.83784522
C        1.33897455       0.73884685       1.02501369
C        1.82466906       0.06127780      -0.64954279
C        0.36438280       0.89800245       0.01571033
H       -1.68175190      -0.80172009      -1.35000128
H       -2.67466748      -0.68436198       0.11269681
H       -2.34541627       0.76387180      -0.84073165
H       -1.01913174      -1.33017591       1.89502364
H        2.54052592      -0.55865862      -0.12059724
H        1.24565478      -0.59800803      -1.30585471
H        2.35230713       0.81657617      -1.21947323
H        0.23946875       1.73332764      -0.65900531
15
Frame=2 idx=007244 GeodesicLength=0.2859785615872283 rxn_smarts="[C:1]([n:2]1[c:3]([H:11])[n:4][c:5]([C:6]([H:12])([H:13])[H:14])[c:7]1[H:15])([H:8])([H:9])[H:10]>>[C:1]([N:2]=[C:3]([N:4]=[C:5]=[C:7]([C:6]([H:12])([H:13])[H:14])[H:15])[H:11])([H:8])([H:9])[H:10]"
C       -1.94805423      -0.17788080      -0.47805595
N       -0.76887762       0.07155345       0.31577319
C       -0.37210394      -0.62872002       1.41122933
N        0.82314016      -0.34373117       1.82701842
C        1.33127186       0.71178578       1.02299026
C        1.86234035       0.06894474      -0.65086224
C        0.38201714       0.89607046       0.00212593
H       -1.72385820      -0.80180662      -1.34785958
H       -2.69824608      -0.68671013       0.12704638
H       -2.37523522       0.76367740      -0.82416091
H       -1.05474061      -1.30992719       1.90930803
H        2.61539622      -0.51369863      -0.12983364
H        1.30767457      -0.62701430      -1.28953875
H        2.35776298       0.82775477      -1.24536960
H        0.26151262       1.74970225      -0.64981088
15
Frame=3 idx=007244 GeodesicLength=0.42814848367898806 rxn_smarts="[C:1]([n:2]1[c:3]([H:11])[n:4][c:5]([C:6]([H:12])([H:13])[H:14])[c:7]1[H:15])([H:8])([H:9])[H:10]>>[C:1]([N:2]=[C:3]([N:4]=[C:5]=[C:7]([C:6]([H:12])([H:13])[H:14])[H:15])[H:11])([H:8])([H:9])[H:10]"
C       -1.97738553      -0.18036992      -0.47015593
N       -0.78540633       0.06116946       0.30716319
C       -0.39498566      -0.63817213       1.40119486
N        0.80806428      -0.36227877       1.81506993
C        1.32348592       0.68343886       1.01947514
C        1.90108089       0.07672196      -0.65180212
C        0.40021698       0.89361538      -0.01210796
H       -1.76785038      -0.80108480      -1.34569744
H       -2.72273232      -0.68879235       0.14176077
H       -2.40593759       0.76413325      -0.80660351
H       -1.08928091      -1.28987211       1.92220758
H        2.69063156      -0.46348463      -0.13772295
H        1.37329644      -0.65703959      -1.27004286
H        2.36238220       0.83611268      -1.27325430
H        0.28442046       1.76590273      -0.63948440
15
Frame=4 idx=007244 GeodesicLength=0.5697579848899201 rxn_smarts="[C:1]([n:2]1[c:3]([H:11])[n:4][c:5]([C:6]([H:12])([H:13])[H:14])[c:7]1[H:15])([H:8])([H:9])[H:10]>>[C:1]([N:2]=[C:3]([N:4]=[C:5]=[C:7]([C:6]([H:12])([H:13])[H:14])[H:15])[H:11])([H:8])([H:9])[H:10]"
C       -2.00784866      -0.18249684      -0.46200581
N       -0.80284225       0.05038567       0.29802819
C       -0.41851479      -0.64751301       1.39085502
N        0.79273246      -0.38168013       1.80191659
C        1.31568750       0.65373005       1.01433686
C        1.94083463       0.08464746      -0.65241284
C        0.41902712       0.89071586      -0.02698951
H       -1.81364712      -0.79961486      -1.34343148
H       -2.74809879      -0.69058398       0.15686767
H       -2.43748761       0.76521095      -0.78815602
H       -1.12266588      -1.27029992       1.93369036
H        2.76557724      -0.40788766      -0.14435832
H        1.44272392      -0.68767218      -1.24728339
H        2.36625843       0.84115783      -1.30311621
H        0.30826381       1.78190075      -0.62794112
15
Frame=5 idx=007244 GeodesicLength=0.7109225755168489 rxn_smarts="[C:1]([n:2]1[c:3]([H:11])[n:4][c:5]([C:6]([H:12])([H:13])[H:14])[c:7]1[H:15])([H:8])([H:9])[H:10]>>[C:1]([N:2]=[C:3]([N:4]=[C:5]=[C:7]([C:6]([H:12])([H:13])[H:14])[H:15])[H:11])([H:8])([H:9])[H:10]"
C       -2.03915609      -0.18463667      -0.45378264
N       -0.82116400       0.03906585       0.28844380
C       -0.44299868      -0.65652842       1.38050896
N        0.77746640      -0.40316841       1.78710604
C        1.30815259       0.62185106       1.00758784
C        1.98149270       0.09297527      -0.65308914
C        0.43853535       0.88739518      -0.04213383
H       -1.86070953      -0.79794869      -1.34096251
H       -2.77422158      -0.69233396       0.17205247
H       -2.46948665       0.76638664      -0.76936771
H       -1.15601510      -1.24912019       1.94531871
H        2.83953470      -0.34708990      -0.15059735
H        1.51604090      -0.71785834      -1.22206610
H        2.36946759       0.84309852      -1.33471809
H        0.33306141       1.79791206      -0.61430045
15
Frame=6 idx=007244 GeodesicLength=0.8514961034004642 rxn_smarts="[C:1]([n:2]1[c:3]([H:11])[n:4][c:5]([C:6]([H:12])([H:13])[H:14])[c:7]1[H:15])([H:8])([H:9])[H:10]>>[C:1]([N:2]=[C:3]([N:4]=[C:5]=[C:7]([C:6]([H:12])([H:13])[H:14])[H:15])[H:11])([H:8])([H:9])[H:10]"
C       -2.07156197      -0.18649121      -0.44525393
N       -0.84050397       0.02749242       0.27840817
C       -0.46805704      -0.66526216       1.36985898
N        0.76200808      -0.42561763       1.77088409
C        1.30070955       0.58838657       0.99889914
C        2.02305110       0.10150556      -0.65354766
C        0.45872365       0.88378045      -0.05791048
H       -1.90944276      -0.79562659      -1.33822581
H       -2.80114156      -0.69391894       0.18768142
H       -2.50234382       0.76800911      -0.74974191
H       -1.18817687      -1.22821847       1.95578505
H        2.91173614      -0.28105694      -0.15582934
H        1.59358649      -0.74749926      -1.19391175
H        2.37248318       0.84098206      -1.36774654
H        0.35892980       1.81353502      -0.59934942
15
Frame=7 idx=007244 GeodesicLength=0.9914600022113477 rxn_smarts="[C:1]([n:2]1[c:3]([H:11])[n:4][c:5]([C:6]([H:12])([H:13])[H:14])[c:7]1[H:15])([H:8])([H:9])[H:10]>>[C:1]([N:2]=[C:3]([N:4]=[C:5]=[C:7]([C:6]([H:12])([H:13])[H:14])[H:15])[H:11])([H:8])([H:9])[H:10]"
C       -2.10513324      -0.18805467      -0.43632860
N       -0.86093180       0.01571163       0.26790974
C       -0.49357604      -0.67374244       1.35877864
N        0.74633233      -0.44888153       1.75312131
C        1.29334356       0.55332975       0.98800734
C        2.06550243       0.11023615      -0.65376892
C        0.47962903       0.87988185      -0.07444030
H       -1.95995152      -0.79256436      -1.33514012
H       -2.82884429      -0.69541047       0.20386253
H       -2.53616572       0.77006238      -0.72910290
H       -1.21907254      -1.20765288       1.96512614
H        2.98146084      -0.20992493      -0.16009935
H        1.67562508      -0.77598269      -1.16293815
H        2.37582683       0.83447519      -1.40169501
H        0.38595506       1.82851702      -0.58329235
15
Frame=8 idx=007244 GeodesicLength=1.1308741698492535 rxn_smarts="[C:1]([n:2]1[c:3]([H:11])[n:4][c:5]([C:6]([H:12])([H:13])[H:14])[c:7]1[H:15])([H:8])([H:9])[H:10]>>[C:1]([N:2]=[C:3]([N:4]=[C:5]=[C:7]([C:6]([H:12])([H:13])[H:14])[H:15])[H:11])([H:8])([H:9])[H:10]"
C       -2.14001047      -0.18927449      -0.42688698
N       -0.88255202       0.00378364       0.25692664
C       -0.51944058      -0.68199925       1.34716378
N        0.73040108      -0.47269917       1.73375494
C        1.28600603       0.51674689       0.97462048
C        2.10890064       0.11912294      -0.65369455
C        0.50128232       0.87568581      -0.09194004
H       -2.01244770      -0.78862253      -1.33162636
H       -2.85737216      -0.69684442       0.22076806
H       -2.57114752       0.77260507      -0.70721691
H       -1.24853775      -1.18775835       1.97326437
H        3.04807621      -0.13385668      -0.16340071
H        1.76247050      -0.80275051      -1.12921652
H        2.38016414       0.82328065      -1.43601354
H        0.41420729       1.84258040      -0.56650267
15
Frame=9 idx=007244 GeodesicLength=1.2698152218313452 rxn_smarts="[C:1]([n:2]1[c:3]([H:11])[n:4][c:5]([C:6]([H:12])([H:13])[H:14])[c:7]1[H:15])([H:8])([H:9])[H:10]>>[C:1]([N:2]=[C:3]([N:4]=[C:5]=[C:7]([C:6]([H:12])([H:13])[H:14])[H:15])[H:11])([H:8])([H:9])[H:10]"
C       -2.17592085      -0.19060570      -0.41707455
N       -0.90542885      -0.00831541       0.24562722
C       -0.54605465      -0.68954620       1.33543073
N        0.71439081      -0.49836381       1.71233940
C        1.27884435       0.47768675       0.95864864
C        2.15315287       0.12829336      -0.65370475
C        0.52372629       0.87122172      -0.11002100
H       -2.06637013      -0.78464828      -1.32743724
H       -2.88659517      -0.69841326       0.23816614
H       -2.60688798       0.77496839      -0.68481103
H       -1.27746511      -1.16602293       1.98168344
H        3.11083456      -0.05392536      -0.16653962
H        1.85405231      -0.82661303      -1.09435319
H        2.38609162       0.80837397      -1.46981586
H        0.44362993       1.85590977      -0.54813833
15
Frame=10 idx=007244 GeodesicLength=1.4083180225596157 rxn_smarts="[C:1]([n:2]1[c:3]([H:11])[n:4][c:5]([C:6]([H:12])([H:13])[H:14])[c:7]1[H:15])([H:8])([H:9])[H:10]>>[C:1]([N:2]=[C:3]([N:4]=[C:5]=[C:7]([C:6]([H:12])([H:13])[H:14])[H:15])[H:11])([H:8])([H:9])[H:10]"
C       -2.21331960      -0.19168080      -0.40656239
N       -0.92976473      -0.02037410       0.23391490
C       -0.57301405      -0.69665117       1.32316667
N        0.69812466      -0.52456272       1.68901912
C        1.27164638       0.43682512       0.93950660
C        2.19845536       0.13755451      -0.65338693
C        0.54698153       0.86641613      -0.12939199
H       -2.12245857      -0.78001175      -1.32247263
H       -2.91671391      -0.69998383       0.25657992
H       -2.64401124       0.77763510      -0.66113847
H       -1.30489406      -1.14464217       1.98918767
H        3.16930643       0.02984579      -0.16890197
H        1.95072654      -0.84746218      -1.05751524
H        2.39460276       0.78916445      -1.50259301
H        0.47433250       1.86792764      -0.52941227
15
Frame=11 idx=007244 GeodesicLength=1.546418538037065 rxn_smarts="[C:1]([n:2]1[c:3]([H:11])[n:4][c:5]([C:6]([H:12])([H:13])[H:14])[c:7]1[H:15])([H:8])([H:9])[H:10]>>[C:1]([N:2]=[C:3]([N:4]=[C:5]=[C:7]([C:6]([H:12])([H:13])[H:14])[H:15])[H:11])([H:8])([H:9])[H:10]"
C       -2.25229352      -0.19257002      -0.39526222
N       -0.95570359      -0.03232675       0.22179936
C       -0.60036719      -0.70315937       1.31036210
N        0.68159115      -0.55147704       1.66347940
C        1.26434282       0.39384788       0.91674262
C        2.24492055       0.14691310      -0.65269735
C        0.57109556       0.86116233      -0.15025340
H       -2.18082044      -0.77483439      -1.31654957
H       -2.94773601      -0.70161477       0.27612144
H       -2.68260741       0.78047150      -0.63615996
H       -1.33090451      -1.12312498       1.99605390
H        3.22304507       0.11687289      -0.17063604
H        2.05261273      -0.86464789      -1.01891279
H        2.40651303       0.76606263      -1.53371050
H        0.50631174       1.87842488      -0.51037699
15
Frame=12 idx=007244 GeodesicLength=1.6842055213563065 rxn_smarts="[C:1]([n:2]1[c:3]([H:11])[n:4][c:5]([C:6]([H:12])([H:13])[H:14])[c:7]1[H:15])([H:8])([H:9])[H:10]>>[C:1]([N:2]=[C:3]([N:4]=[C:5]=[C:7]([C:6]([H:12])([H:13])[H:14])[H:15])[H:11])([H:8])([H:9])[H:10]"
C       -2.29307333      -0.19319597      -0.38299797
N       -0.98341775      -0.04410396       0.20920941
C       -0.62804796      -0.70904845       1.29684763
N        0.66474978      -0.57893377       1.63545125
C        1.25680543       0.34863203       0.88974753
C        2.29276160       0.15635833      -0.65142923
C        0.59613179       0.85530165      -0.17304688
H       -2.24184910      -0.76895549      -1.30949953
H       -2.97974313      -0.70330210       0.29703374
H       -2.72293111       0.78355457      -0.60954756
H       -1.35531670      -1.10174404       2.00213035
H        3.27174096       0.20688569      -0.17167526
H        2.15992710      -0.87769232      -0.97810605
H        2.42267170       0.73917018      -1.56273583
H        0.53959072       1.88707365      -0.49138159
15
Frame=13 idx=007244 GeodesicLength=1.8216897495829578 rxn_smarts="[C:1]([n:2]1[c:3]([H:11])[n:4][c:5]([C:6]([H:12])([H:13])[H:14])[c:7]1[H:15])([H:8])([H:9])[H:10]>>[C:1]([N:2]=[C:3]([N:4]=[C:5]=[C:7]([C:6]([H:12])([H:13])[H:14])[H:15])[H:11])([H:8])([H:9])[H:10]"
C       -2.33553480      -0.19384890      -0.36982917
N       -1.01308720      -0.05544447       0.19636471
C       -0.65627917      -0.71386709       1.28290374
N        0.64754319      -0.60770087       1.60450556
C        1.24899818       0.30025309       0.85793534
C        2.34200438       0.16596374      -0.64966504
C        0.62216248       0.84891582      -0.19765495
H       -2.30507110      -0.76308640      -1.30105914
H       -3.01264300      -0.70514703       0.31928461
H       -2.76490382       0.78641618      -0.58193505
H       -1.37841202      -1.07886979       2.00824535
H        3.31503156       0.29858933      -0.17237901
H        2.27228876      -0.88580839      -0.93589109
H        2.44377758       0.70961055      -1.58914210
H        0.57412497       1.89402424      -0.47168376
15
Frame=14 idx=007244 GeodesicLength=1.9589067427017752 rxn_smarts="[C:1]([n:2]1[c:3]([H:11])[n:4][c:5]([C:6]([H:12])([H:13])[H:14])[c:7]1[H:15])([H:8])([H:9])[H:10]>>[C:1]([N:2]=[C:3]([N:4]=[C:5]=[C:7]([C:6]([H:12])([H:13])[H:14])[H:15])[H:11])([H:8])([H:9])[H:10]"
C       -2.38009114      -0.19424956      -0.35542634
N       -1.04487862      -0.06629194       0.18301301
C       -0.68473838      -0.71778054       1.26802659
N        0.62996468      -0.63695349       1.57039468
C        1.24068677       0.24880187       0.82023691
C        2.39294555       0.17574459      -0.64691690
C        0.64926226       0.84179720      -0.22494637
H       -2.37134718      -0.75666231      -1.29103895
H       -3.04653449      -0.70706537       0.34334164
H       -2.80899281       0.78941580      -0.55250241
H       -1.39956208      -1.05589542       2.01355719
H        3.35277391       0.39202084      -0.17235872
H        2.38981153      -0.88862164      -0.89066158
H        2.47076147       0.67700088      -1.61268013
H        0.60993852       1.89873906      -0.45203860
15
Frame=15 idx=007244 GeodesicLength=2.0958447206881976 rxn_smarts="[C:1]([n:2]1[c:3]([H:11])[n:4][c:5]([C:6]([H:12])([H:13])[H:14])[c:7]1[H:15])([H:8])([H:9])[H:10]>>[C:1]([N:2]=[C:3]([N:4]=[C:5]=[C:7]([C:6]([H:12])([H:13])[H:14])[H:15])[H:11])([H:8])([H:9])[H:10]"
C       -2.42671839      -0.19461302      -0.33974518
N       -1.07897621      -0.07629709       0.16928520
C       -0.71343893      -0.72036105       1.25228567
N        0.61191416      -0.66677419       1.53274823
C        1.23170523       0.19331768       0.77541968
C        2.44563309       0.18581038      -0.64305605
C        0.67755566       0.83408556      -0.25509259
H       -2.44039871      -0.75019411      -1.27916490
H       -3.08127244      -0.70923405       0.36930752
H       -2.85534627       0.79217553      -0.52156029
H       -1.41867876      -1.03184066       2.01844266
H        3.38483098       0.48579274      -0.17165341
H        2.51165327      -0.88539146      -0.84256175
H        2.50448666       0.64228402      -1.63287283
H        0.64705065       1.90123972      -0.43178194
15
Frame=16 idx=007244 GeodesicLength=2.2324666876682184 rxn_smarts="[C:1]([n:2]1[c:3]([H:11])[n:4][c:5]([C:6]([H:12])([H:13])[H:14])[c:7]1[H:15])([H:8])([H:9])[H:10]>>[C:1]([N:2]=[C:3]([N:4]=[C:5]=[C:7]([C:6]([H:12])([H:13])[H:14])[H:15])[H:11])([H:8])([H:9])[H:10]"
C       -2.47576702      -0.19477391      -0.32238322
N       -1.11549963      -0.08556598       0.15476115
C       -0.74197864      -0.72171023       1.23504060
N        0.59348476      -0.69617140       1.49117791
C        1.22162395       0.13333162       0.72154310
C        2.50031156       0.19629752      -0.63749255
C        0.70712164       0.82558346      -0.28921328
H       -2.51319895      -0.74328622      -1.26509231
H       -3.11678127      -0.71160755       0.39777630
H       -2.90428517       0.79494003      -0.48817208
H       -1.43507218      -1.00747047       2.02218536
H        3.41109271       0.57959041      -0.16958345
H        2.63733327      -0.87557609      -0.78993086
H        2.54624451       0.60549397      -1.64921159
H        0.68537048       1.90092484      -0.41140508
