16
Frame=0 idx=004896 GeodesicLength=0.0 rxn_smarts="[C:1]([C:2]([C@@:3]1([C:4]([H:12])([H:13])[H:14])[C:5]([H:15])([H:16])[O:6]1)([H:10])[H:11])([H:7])([H:8])[H:9]>>[C:1]([C:3](=[C:2]([H:10])[H:11])[C:4]([H:12])([H:13])[H:14])([H:7])([H:8])[H:9].[C:5](=[O:6])([H:15])[H:16]"
C        1.22355336       0.29660936       0.70686184
C        0.76065354       0.19750735      -1.22290744
C       -0.11594392      -0.07845658      -0.19625113
C       -0.62728098      -1.48458725      -0.03439274
C       -1.24308455       1.06107355       0.22024890
O       -2.31835879       0.79851873      -0.41635772
H        1.04829855      -0.41750193       1.51134036
H        1.10764409       1.33108609       1.02342916
H        2.24733706       0.11973646       0.36435731
H        1.19134895      -0.57284040      -1.86084465
H        1.03256460       1.22757395      -1.43443044
H        0.09891849      -2.24067785      -0.34277123
H       -0.91892053      -1.66744902       1.00127958
H       -1.52762441      -1.56830614      -0.64153853
H       -0.69934347       2.01831303      -0.02007945
H       -1.25976200       0.97940065       1.34205618
16
Frame=1 idx=004896 GeodesicLength=0.09854776939611756 rxn_smarts="[C:1]([C:2]([C@@:3]1([C:4]([H:12])([H:13])[H:14])[C:5]([H:15])([H:16])[O:6]1)([H:10])[H:11])([H:7])([H:8])[H:9]>>[C:1]([C:3](=[C:2]([H:10])[H:11])[C:4]([H:12])([H:13])[H:14])([H:7])([H:8])[H:9].[C:5](=[O:6])([H:15])[H:16]"
C        1.23150428       0.28815192       0.71080984
C        0.76756747       0.19598807      -1.21244180
C       -0.12408150      -0.08123903      -0.19705230
C       -0.62901202      -1.48894651      -0.03362822
C       -1.25127196       1.08577524       0.21283794
O       -2.30420280       0.79007350      -0.44702146
H        1.07962869      -0.44237276       1.50539131
H        1.09908900       1.31048236       1.05963250
H        2.26253758       0.14853961       0.37342501
H        1.17988652      -0.57215622      -1.86451329
H        1.03955000       1.22474815      -1.42951312
H        0.07705577      -2.24542340      -0.38473278
H       -0.87319958      -1.69316073       1.01033995
H       -1.55814971      -1.57460967      -0.59515494
H       -0.71545888       2.04160496      -0.04133536
H       -1.28144286       1.01254449       1.33295674
16
Frame=2 idx=004896 GeodesicLength=0.19725226768890208 rxn_smarts="[C:1]([C:2]([C@@:3]1([C:4]([H:12])([H:13])[H:14])[C:5]([H:15])([H:16])[O:6]1)([H:10])[H:11])([H:7])([H:8])[H:9]>>[C:1]([C:3](=[C:2]([H:10])[H:11])[C:4]([H:12])([H:13])[H:14])([H:7])([H:8])[H:9].[C:5](=[O:6])([H:15])[H:16]"
C        1.23962003       0.27948610       0.71520754
C        0.77473779       0.19409587      -1.20154833
C       -0.13215371      -0.08418116      -0.19773599
C       -0.63095004      -1.49339139      -0.03277774
C       -1.25960076       1.11096823       0.20414983
O       -2.28951725       0.78134268      -0.47668217
H        1.11264048      -0.46848336       1.49803074
H        1.08902959       1.28760589       1.09731848
H        2.27700572       0.17950545       0.38369702
H        1.16875703      -0.57122588      -1.86767536
H        1.04681576       1.22150982      -1.42433277
H        0.05210573      -2.24920734      -0.42803859
H       -0.82499867      -1.72025136       1.01710237
H       -1.58810280      -1.58031540      -0.54465959
H       -0.73215822       2.06524019      -0.06461274
H       -1.30323068       1.04730166       1.32255729
16
Frame=3 idx=004896 GeodesicLength=0.29590614826732653 rxn_smarts="[C:1]([C:2]([C@@:3]1([C:4]([H:12])([H:13])[H:14])[C:5]([H:15])([H:16])[O:6]1)([H:10])[H:11])([H:7])([H:8])[H:9]>>[C:1]([C:3](=[C:2]([H:10])[H:11])[C:4]([H:12])([H:13])[H:14])([H:7])([H:8])[H:9].[C:5](=[O:6])([H:15])[H:16]"
C        1.24789897       0.27063817       0.72010284
C        0.78215085       0.19183082      -1.19015738
C       -0.14012559      -0.08728521      -0.19826271
C       -0.63310041      -1.49791363      -0.03181546
C       -1.26798372       1.13662567       0.19413341
O       -2.27438534       0.77208491      -0.50511508
H        1.14741044      -0.49571024       1.48904501
H        1.07736053       1.26217217       1.13652314
H        2.29050071       0.21274628       0.39536137
H        1.15798142      -0.57007368      -1.87020701
H        1.05436189       1.21784076      -1.41878325
H        0.02364447      -2.25183480      -0.47269649
H       -0.77432829      -1.74879110       1.02110905
H       -1.61704958      -1.58528120      -0.48978964
H       -0.74944039       2.08914187      -0.09020457
H       -1.32489596       1.08380922       1.31075678
16
Frame=4 idx=004896 GeodesicLength=0.39437062385361965 rxn_smarts="[C:1]([C:2]([C@@:3]1([C:4]([H:12])([H:13])[H:14])[C:5]([H:15])([H:16])[O:6]1)([H:10])[H:11])([H:7])([H:8])[H:9]>>[C:1]([C:3](=[C:2]([H:10])[H:11])[C:4]([H:12])([H:13])[H:14])([H:7])([H:8])[H:9].[C:5](=[O:6])([H:15])[H:16]"
C        1.25632695       0.26163884       0.72555540
C        0.78980872       0.18920128      -1.17820723
C       -0.14796882      -0.09053695      -0.19860182
C       -0.63545961      -1.50250296      -0.03072848
C       -1.27635180       1.16273521       0.18272979
O       -2.25895680       0.76208560      -0.53203043
H        1.18402310      -0.52392090       1.47824426
H        1.06398561       1.23387033       1.17724539
H        2.30274342       0.24833705       0.40865301
H        1.14761747      -0.56873189      -1.87197151
H        1.06222332       1.21373904      -1.41277667
H       -0.00882478      -2.25304296      -0.51866794
H       -0.72118415      -1.77892332       1.02182306
H       -1.64445758      -1.58937459      -0.43026006
H       -0.76733629       2.11318972      -0.11846504
H       -1.34618878       1.12223649       1.29745826
16
Frame=5 idx=004896 GeodesicLength=0.492604550203308 rxn_smarts="[C:1]([C:2]([C@@:3]1([C:4]([H:12])([H:13])[H:14])[C:5]([H:15])([H:16])[O:6]1)([H:10])[H:11])([H:7])([H:8])[H:9]>>[C:1]([C:3](=[C:2]([H:10])[H:11])[C:4]([H:12])([H:13])[H:14])([H:7])([H:8])[H:9].[C:5](=[O:6])([H:15])[H:16]"
C        1.26481970       0.25243832       0.73171246
C        0.79775019       0.18617650      -1.16564240
C       -0.15569427      -0.09394740      -0.19871940
C       -0.63807137      -1.50719234      -0.02958546
C       -1.28469647       1.18928200       0.16986778
O       -2.24346079       0.75136566      -0.55688304
H        1.22252860      -0.55310867       1.46562009
H        1.04866138       1.20244559       1.21941562
H        2.31335159       0.28628191       0.42376535
H        1.13782139      -0.56730380      -1.87279067
H        1.07045809       1.20919207      -1.40623276
H       -0.04546551      -2.25242025      -0.56584203
H       -0.66519569      -1.81103116       1.01870902
H       -1.67008526      -1.59224117      -0.36596392
H       -0.78603413       2.13708266      -0.14996641
H       -1.36668745       1.16298008       1.28253578
16
Frame=6 idx=004896 GeodesicLength=0.5905898095929263 rxn_smarts="[C:1]([C:2]([C@@:3]1([C:4]([H:12])([H:13])[H:14])[C:5]([H:15])([H:16])[O:6]1)([H:10])[H:11])([H:7])([H:8])[H:9]>>[C:1]([C:3](=[C:2]([H:10])[H:11])[C:4]([H:12])([H:13])[H:14])([H:7])([H:8])[H:9].[C:5](=[O:6])([H:15])[H:16]"
C        1.27341317       0.24309207       0.73860944
C        0.80597482       0.18279658      -1.15243548
C       -0.16326210      -0.09748993      -0.19860841
C       -0.64086797      -1.51196528      -0.02831991
C       -1.29296137       1.21623764       0.15553352
O       -2.22807577       0.73956030      -0.57929432
H        1.26290849      -0.58284881       1.45098138
H        1.03152034       1.16748221       1.26295749
H        2.32208703       0.32652222       0.44105782
H        1.12864179      -0.56580620      -1.87259705
H        1.07912036       1.20420815      -1.39907587
H       -0.08701686      -2.24968234      -0.61403039
H       -0.60674559      -1.84499706       1.01103023
H       -1.69293625      -1.59396762      -0.29674879
H       -0.80565618       2.16070823      -0.18497510
H       -1.38614391       1.20614985       1.26591543
16
Frame=7 idx=004896 GeodesicLength=0.6882355692904649 rxn_smarts="[C:1]([C:2]([C@@:3]1([C:4]([H:12])([H:13])[H:14])[C:5]([H:15])([H:16])[O:6]1)([H:10])[H:11])([H:7])([H:8])[H:9]>>[C:1]([C:3](=[C:2]([H:10])[H:11])[C:4]([H:12])([H:13])[H:14])([H:7])([H:8])[H:9].[C:5](=[O:6])([H:15])[H:16]"
C        1.28206105       0.23360330       0.74632642
C        0.81446558       0.17908792      -1.13853730
C       -0.17065464      -0.10115738      -0.19825120
C       -0.64376381      -1.51685778      -0.02693455
C       -1.30108002       1.24355944       0.13973642
O       -2.21305998       0.72646155      -0.59873603
H        1.30501850      -0.61274936       1.43430591
H        1.01263702       1.12868791       1.30760842
H        2.32859844       0.36880116       0.46082757
H        1.12010159      -0.56427978      -1.87125813
H        1.08824716       1.19881428      -1.39118997
H       -0.13381804      -2.24441118      -0.66292945
H       -0.54611292      -1.88078257       0.99809324
H       -1.71215385      -1.59459678      -0.22274503
H       -0.82635638       2.18383852      -0.22390446
H       -1.40412971       1.25198074       1.24758814
16
Frame=8 idx=004896 GeodesicLength=0.7854360656163559 rxn_smarts="[C:1]([C:2]([C@@:3]1([C:4]([H:12])([H:13])[H:14])[C:5]([H:15])([H:16])[O:6]1)([H:10])[H:11])([H:7])([H:8])[H:9]>>[C:1]([C:3](=[C:2]([H:10])[H:11])[C:4]([H:12])([H:13])[H:14])([H:7])([H:8])[H:9].[C:5](=[O:6])([H:15])[H:16]"
C        1.29068501       0.22396544       0.75492951
C        0.82318578       0.17510806      -1.12391828
C       -0.17787100      -0.10492916      -0.19767076
C       -0.64664234      -1.52191711      -0.02547601
C       -1.30898296       1.27120857       0.12248643
O       -2.19875095       0.71196960      -0.61450302
H        1.34863148      -0.64237698       1.41564411
H        0.99214332       1.08579940       1.35303752
H        2.33250387       0.41274913       0.48337461
H        1.11220317      -0.56273279      -1.86868202
H        1.09787299       1.19307323      -1.38244138
H       -0.18602960      -2.23618397      -0.71190413
H       -0.48380859      -1.91824949       0.97908450
H       -1.72674270      -1.59431037      -0.14429409
H       -0.84831960       2.20610173      -0.26717853
H       -1.42007788       1.30072472       1.22751153
16
Frame=9 idx=004896 GeodesicLength=0.8820288330201429 rxn_smarts="[C:1]([C:2]([C@@:3]1([C:4]([H:12])([H:13])[H:14])[C:5]([H:15])([H:16])[O:6]1)([H:10])[H:11])([H:7])([H:8])[H:9]>>[C:1]([C:3](=[C:2]([H:10])[H:11])[C:4]([H:12])([H:13])[H:14])([H:7])([H:8])[H:9].[C:5](=[O:6])([H:15])[H:16]"
C        1.29908283       0.21404282       0.76452932
C        0.83205852       0.17092471      -1.10852637
C       -0.18497424      -0.10881135      -0.19687563
C       -0.64956242      -1.52718044      -0.02408520
C       -1.31663912       1.29915106       0.10386231
O       -2.18553870       0.69629228      -0.62536613
H        1.39331502      -0.67148035       1.39516943
H        0.97013005       1.03888918       1.39880113
H        2.33332733       0.45771731       0.50883904
H        1.10490507      -0.56111240      -1.86482191
H        1.10793807       1.18708732      -1.37257497
H       -0.24270595      -2.22496123      -0.75977234
H       -0.42016792      -1.95719555       0.95316743
H       -1.73623716      -1.59307517      -0.06253991
H       -0.87196774       2.22679170      -0.31538811
H       -1.43296364       1.35292011       1.20558191
16
Frame=10 idx=004896 GeodesicLength=0.978623344836873 rxn_smarts="[C:1]([C:2]([C@@:3]1([C:4]([H:12])([H:13])[H:14])[C:5]([H:15])([H:16])[O:6]1)([H:10])[H:11])([H:7])([H:8])[H:9]>>[C:1]([C:3](=[C:2]([H:10])[H:11])[C:4]([H:12])([H:13])[H:14])([H:7])([H:8])[H:9].[C:5](=[O:6])([H:15])[H:16]"
C        1.30738585       0.20379686       0.77511640
C        0.84110239       0.16663724      -1.09252219
C       -0.19196233      -0.11275331      -0.19596760
C       -0.65221544      -1.53272204      -0.02280512
C       -1.32414853       1.32743454       0.08398314
O       -2.17367659       0.67932063      -0.63090993
H        1.43876359      -0.69943501       1.37338578
H        0.94714780       0.98777626       1.44424865
H        2.33116001       0.50293415       0.53750669
H        1.09828242      -0.55937761      -1.85988165
H        1.11854645       1.18098185      -1.36170783
H       -0.30405538      -2.21039163      -0.80585875
H       -0.35648709      -1.99698170       0.92023186
H       -1.73936348      -1.59164163       0.02169391
H       -0.89778466       2.24584736      -0.36842544
H       -1.44269502       1.40857405       1.18191208
16
Frame=11 idx=004896 GeodesicLength=1.0753185752670917 rxn_smarts="[C:1]([C:2]([C@@:3]1([C:4]([H:12])([H:13])[H:14])[C:5]([H:15])([H:16])[O:6]1)([H:10])[H:11])([H:7])([H:8])[H:9]>>[C:1]([C:3](=[C:2]([H:10])[H:11])[C:4]([H:12])([H:13])[H:14])([H:7])([H:8])[H:9].[C:5](=[O:6])([H:15])[H:16]"
C        1.31552936       0.19310305       0.78665877
C        0.85020505       0.16235408      -1.07596190
C       -0.19890068      -0.11673952      -0.19502040
C       -0.65451018      -1.53857190      -0.02180189
C       -1.33152575       1.35606202       0.06300592
O       -2.16339661       0.66134562      -0.63039942
H        1.48445071      -0.72590402       1.35078272
H        0.92363992       0.93269506       1.48867503
H        2.32592085       0.54748235       0.56936056
H        1.09219371      -0.55737364      -1.85401571
H        1.12961805       1.17491176      -1.34972664
H       -0.36894467      -2.19254003      -0.84898382
H       -0.29384040      -2.03687468       0.88033016
H       -1.73557697      -1.59061670       0.10684993
H       -0.92617489       2.26283045      -0.42626442
H       -1.44868749       1.46783609       1.15651110
16
Frame=12 idx=004896 GeodesicLength=1.172135262216574 rxn_smarts="[C:1]([C:2]([C@@:3]1([C:4]([H:12])([H:13])[H:14])[C:5]([H:15])([H:16])[O:6]1)([H:10])[H:11])([H:7])([H:8])[H:9]>>[C:1]([C:3](=[C:2]([H:10])[H:11])[C:4]([H:12])([H:13])[H:14])([H:7])([H:8])[H:9].[C:5](=[O:6])([H:15])[H:16]"
C        1.32347333       0.18185806       0.79905438
C        0.85923761       0.15822302      -1.05891981
C       -0.20585408      -0.12075622      -0.19411601
C       -0.65637115      -1.54474662      -0.02118518
C       -1.33876769       1.38503624       0.04108963
O       -2.15479798       0.64281618      -0.62318633
H        1.52992348      -0.75062525       1.32775082
H        0.90009376       0.87397216       1.53140365
H        2.31764074       0.59048392       0.60428184
H        1.08648339      -0.55485499      -1.84743767
H        1.14100325       1.16907315      -1.33652233
H       -0.43586968      -2.17186349      -0.88790049
H       -0.23359641      -2.07586066       0.83392005
H       -1.72467836      -1.59068085       0.19107745
H       -0.95754323       2.27724835      -0.48861705
H       -1.45037699       1.53067701       1.12930706
16
Frame=13 idx=004896 GeodesicLength=1.269165008498487 rxn_smarts="[C:1]([C:2]([C@@:3]1([C:4]([H:12])([H:13])[H:14])[C:5]([H:15])([H:16])[O:6]1)([H:10])[H:11])([H:7])([H:8])[H:9]>>[C:1]([C:3](=[C:2]([H:10])[H:11])[C:4]([H:12])([H:13])[H:14])([H:7])([H:8])[H:9].[C:5](=[O:6])([H:15])[H:16]"
C        1.33119650       0.16987428       0.81219566
C        0.86800534       0.15442604      -1.04142594
C       -0.21293257      -0.12482645      -0.19326048
C       -0.65789626      -1.55128767      -0.02105563
C       -1.34590075       1.41436743       0.01840783
O       -2.14771181       0.62436154      -0.60828152
H        1.57492625      -0.77365071       1.30461826
H        0.87676054       0.81220927       1.57199477
H        2.30641309       0.63118793       0.64196885
H        1.08097551      -0.55145500      -1.84037911
H        1.15243501       1.16371746      -1.32192647
H       -0.50262430      -2.14958952      -0.92174641
H       -0.17662612      -2.11297025       0.78199028
H       -1.70760636      -1.59196926       0.27211976
H       -0.99244835       2.28834365      -0.55511926
H       -1.44696572       1.59726125       1.09989942
16
Frame=14 idx=004896 GeodesicLength=1.3664479402897716 rxn_smarts="[C:1]([C:2]([C@@:3]1([C:4]([H:12])([H:13])[H:14])[C:5]([H:15])([H:16])[O:6]1)([H:10])[H:11])([H:7])([H:8])[H:9]>>[C:1]([C:3](=[C:2]([H:10])[H:11])[C:4]([H:12])([H:13])[H:14])([H:7])([H:8])[H:9].[C:5](=[O:6])([H:15])[H:16]"
C        1.33875060       0.15719665       0.82591478
C        0.87648590       0.15104617      -1.02354497
C       -0.22013798      -0.12892721      -0.19254317
C       -0.65900845      -1.55811926      -0.02153493
C       -1.35293401       1.44405773      -0.00505145
O       -2.14183849       0.60642579      -0.58602200
H        1.61911324      -0.79471982       1.28180225
H        0.85418008       0.74766250       1.60982445
H        2.29253716       0.66908375       0.68231543
H        1.07568719      -0.54701205      -1.83292710
H        1.16385774       1.15895445      -1.30597539
H       -0.56879999      -2.12581619      -0.95036642
H       -0.12385616      -2.14755509       0.72553974
H       -1.68429527      -1.59535384       0.34942493
H       -1.03109726       2.29593279      -0.62496871
H       -1.43864430       1.66714363       1.06811254
16
Frame=15 idx=004896 GeodesicLength=1.4639120444082758 rxn_smarts="[C:1]([C:2]([C@@:3]1([C:4]([H:12])([H:13])[H:14])[C:5]([H:15])([H:16])[O:6]1)([H:10])[H:11])([H:7])([H:8])[H:9]>>[C:1]([C:3](=[C:2]([H:10])[H:11])[C:4]([H:12])([H:13])[H:14])([H:7])([H:8])[H:9].[C:5](=[O:6])([H:15])[H:16]"
C        1.34611818       0.14379088       0.84014924
C        0.88458122       0.14819017      -1.00523402
C       -0.22751653      -0.13306939      -0.19194396
C       -0.65982433      -1.56522006      -0.02269068
C       -1.35985446       1.47408694      -0.02936129
O       -2.13684447       0.58961014      -0.55606284
H        1.66231321      -0.81387797       1.25947299
H        0.83252599       0.68069368       1.64469703
H        2.27614697       0.70389889       0.72520831
H        1.07061121      -0.54130900      -1.82508335
H        1.17509880       1.15493781      -1.28854967
H       -0.63354974      -2.10112431      -0.97389593
H       -0.07551644      -2.17920365       0.66533963
H       -1.65542272      -1.60106258       0.42233013
H       -1.07382767       2.29937739      -0.69768881
H       -1.42503922       1.74028106       1.03331323
16
Frame=16 idx=004896 GeodesicLength=1.5612187293386819 rxn_smarts="[C:1]([C:2]([C@@:3]1([C:4]([H:12])([H:13])[H:14])[C:5]([H:15])([H:16])[O:6]1)([H:10])[H:11])([H:7])([H:8])[H:9]>>[C:1]([C:3](=[C:2]([H:10])[H:11])[C:4]([H:12])([H:13])[H:14])([H:7])([H:8])[H:9].[C:5](=[O:6])([H:15])[H:16]"
C        1.35340266       0.12964317       0.85482570
C        0.89219005       0.14595389      -0.98656011
C       -0.23505596      -0.13724677      -0.19141589
C       -0.66034035      -1.57258904      -0.02452588
C       -1.36678111       1.50444188      -0.05453926
O       -2.13249022       0.57475634      -0.51882977
H        1.70451415      -0.83124200       1.23785251
H        0.81213022       0.61193781       1.67658597
H        2.25762774       0.73513523       0.77028492
H        1.06565529      -0.53416677      -1.81703010
H        1.18587908       1.15184003      -1.26966838
H       -0.69579086      -2.07640663      -0.99272036
H       -0.03177708      -2.20763271       0.60271932
H       -1.62201983      -1.60894163       0.49023524
H       -1.12075816       2.29834295      -0.77234093
H       -1.40638560       1.81617425       0.99512703
