15
Frame=0 idx=010964 GeodesicLength=0.0 rxn_smarts="[C:1]([C:2]1=[C:3]([H:11])[C:4]([H:12])([H:13])[C@@:5]2([H:14])[O:6][C@@:7]12[H:15])([H:8])([H:9])[H:10]>>[C:1]([C:7](=[C:2]=[C:3]([C:4]([C:5](=[O:6])[H:14])([H:12])[H:13])[H:11])[H:15])([H:8])([H:9])[H:10]"
C        2.27639113      -0.05011217      -0.54203756
C        0.62246142       0.22543346      -0.09666522
C       -0.17780409      -0.79390497       0.17146470
C       -1.51306104      -0.59422992       0.82214831
C       -2.41984666       0.44371966       0.20444734
O       -2.13363143       1.17945373      -0.69667752
C        1.27137195       1.37750428      -0.12352863
H        2.90307468       0.63294715      -1.11224321
H        1.99979785      -0.84887705      -1.23717138
H        2.80044939      -0.41949902       0.33009809
H        0.13020859      -1.79520581      -0.09342944
H       -2.07493066      -1.53319468       0.83824917
H       -1.42118848      -0.30668394       1.87968102
H       -3.42386860       0.49880739       0.67771554
H        1.16057595       1.98384183      -1.02205127
15
Frame=1 idx=010964 GeodesicLength=0.1232053783500733 rxn_smarts="[C:1]([C:2]1=[C:3]([H:11])[C:4]([H:12])([H:13])[C@@:5]2([H:14])[O:6][C@@:7]12[H:15])([H:8])([H:9])[H:10]>>[C:1]([C:7](=[C:2]=[C:3]([C:4]([C:5](=[O:6])[H:14])([H:12])[H:13])[H:11])[H:15])([H:8])([H:9])[H:10]"
C        2.28719365      -0.03850553      -0.51958049
C        0.59311000       0.17812086      -0.18913800
C       -0.19977717      -0.83046996       0.12731302
C       -1.51016767      -0.60153016       0.81737586
C       -2.39168047       0.47587246       0.23608243
O       -2.08151567       1.35232921      -0.52712576
C        1.19205779       1.35987568      -0.19076934
H        2.90689281       0.64017650      -1.10285815
H        2.08948523      -0.89507774      -1.17128089
H        2.79270026      -0.33230851       0.39214853
H        0.11590932      -1.83993172      -0.09469684
H       -2.09763623      -1.52511593       0.82457333
H       -1.38592629      -0.34449624       1.87884239
H       -3.43313141       0.45133918       0.62323218
H        1.12248584       1.94972191      -1.10411826
15
Frame=2 idx=010964 GeodesicLength=0.2465636410591068 rxn_smarts="[C:1]([C:2]1=[C:3]([H:11])[C:4]([H:12])([H:13])[C@@:5]2([H:14])[O:6][C@@:7]12[H:15])([H:8])([H:9])[H:10]>>[C:1]([C:7](=[C:2]=[C:3]([C:4]([C:5](=[O:6])[H:14])([H:12])[H:13])[H:11])[H:15])([H:8])([H:9])[H:10]"
C        2.29015663      -0.02467984      -0.50406471
C        0.56661898       0.12809506      -0.27148228
C       -0.21770644      -0.86808013       0.09619825
C       -1.50662561      -0.60964375       0.81617718
C       -2.35430934       0.50406819       0.25607906
O       -2.01410325       1.49709023      -0.34201973
C        1.11493462       1.33731551      -0.24958121
H        2.90029611       0.64916842      -1.10342375
H        2.16417935      -0.92877729      -1.10744202
H        2.78036608      -0.24655961       0.43672966
H        0.10292407      -1.88401669      -0.08757060
H       -2.12034130      -1.51635696       0.81509596
H       -1.35814137      -0.37862646       1.87988025
H       -3.42678785       0.42204009       0.53547680
H        1.07853933       1.91896321      -1.17005286
15
Frame=3 idx=010964 GeodesicLength=0.3708104381097183 rxn_smarts="[C:1]([C:2]1=[C:3]([H:11])[C:4]([H:12])([H:13])[C@@:5]2([H:14])[O:6][C@@:7]12[H:15])([H:8])([H:9])[H:10]>>[C:1]([C:7](=[C:2]=[C:3]([C:4]([C:5](=[O:6])[H:14])([H:12])[H:13])[H:11])[H:15])([H:8])([H:9])[H:10]"
C        2.28691393      -0.00827683      -0.49389000
C        0.54298452       0.07717435      -0.33870029
C       -0.23088183      -0.90586014       0.07916818
C       -1.50384740      -0.61941210       0.81666698
C       -2.30616208       0.53224934       0.26900652
O       -1.93666484       1.60963680      -0.14926879
C        1.03935729       1.31171310      -0.30155149
H        2.88394831       0.65858040      -1.11411604
H        2.22608131      -0.95155370      -1.04471436
H        2.76754986      -0.15913918       0.46644256
H        0.09239016      -1.92655159      -0.07162045
H       -2.14597547      -1.50613832       0.79989567
H       -1.34146122      -0.41625468       1.88330703
H       -3.39973150       0.41606916       0.42527141
H        1.02549896       1.88776338      -1.22589693
15
Frame=4 idx=010964 GeodesicLength=0.49680320198908134 rxn_smarts="[C:1]([C:2]1=[C:3]([H:11])[C:4]([H:12])([H:13])[C@@:5]2([H:14])[O:6][C@@:7]12[H:15])([H:8])([H:9])[H:10]>>[C:1]([C:7](=[C:2]=[C:3]([C:4]([C:5](=[O:6])[H:14])([H:12])[H:13])[H:11])[H:15])([H:8])([H:9])[H:10]"
C        2.28111467       0.01160379      -0.48741524
C        0.52320027       0.02596227      -0.38922337
C       -0.23918981      -0.94402986       0.07536332
C       -1.50446990      -0.63221108       0.81640559
C       -2.24987138       0.56155180       0.27911736
O       -1.85255730       1.68896454       0.03992516
C        0.96533244       1.28454752      -0.34917174
H        2.86094310       0.66776172      -1.13521910
H        2.28094286      -0.96533629      -0.97943665
H        2.75738341      -0.06519658       0.48459013
H        0.08424259      -1.96842696      -0.04941727
H       -2.17714618      -1.49510461       0.77175957
H       -1.34036836      -0.46338255       1.88809885
H       -3.35274257       0.43954470       0.31232662
H        0.96318615       1.85375161      -1.27770321
15
Frame=5 idx=010964 GeodesicLength=0.625506440308882 rxn_smarts="[C:1]([C:2]1=[C:3]([H:11])[C:4]([H:12])([H:13])[C@@:5]2([H:14])[O:6][C@@:7]12[H:15])([H:8])([H:9])[H:10]>>[C:1]([C:7](=[C:2]=[C:3]([C:4]([C:5](=[O:6])[H:14])([H:12])[H:13])[H:11])[H:15])([H:8])([H:9])[H:10]"
C        2.27311689       0.03432135      -0.48422254
C        0.50634578      -0.02528650      -0.42645856
C       -0.24440933      -0.98201764       0.08106699
C       -1.50823183      -0.64689810       0.81530204
C       -2.18677631       0.59227515       0.29198762
O       -1.76413231       1.73987826       0.22183503
C        0.89253219       1.25551818      -0.39219341
H        2.83242664       0.67533132      -1.16489915
H        2.33080874      -0.97057844      -0.91189193
H        2.74826718       0.03464824       0.49215564
H        0.07826730      -2.00947630      -0.02007658
H       -2.21242504      -1.48134800       0.73180922
H       -1.35266295      -0.51874062       1.89329409
H       -3.28669361       0.48533696       0.19755413
H        0.89356666       1.81703615      -1.32526257
15
Frame=6 idx=010964 GeodesicLength=0.756891067337274 rxn_smarts="[C:1]([C:2]1=[C:3]([H:11])[C:4]([H:12])([H:13])[C@@:5]2([H:14])[O:6][C@@:7]12[H:15])([H:8])([H:9])[H:10]>>[C:1]([C:7](=[C:2]=[C:3]([C:4]([C:5](=[O:6])[H:14])([H:12])[H:13])[H:11])[H:15])([H:8])([H:9])[H:10]"
C        2.26356017       0.05945698      -0.48242988
C        0.49217960      -0.07634663      -0.45405385
C       -0.24835777      -1.01965205       0.09112920
C       -1.51459544      -0.66284530       0.81208903
C       -2.12017367       0.62180380       0.30836018
O       -1.67305916       1.76601145       0.38792455
C        0.82102037       1.22447482      -0.43095388
H        2.80053675       0.67972326      -1.19973553
H        2.37778588      -0.96771244      -0.83940034
H        2.73799987       0.14082925       0.49169266
H        0.07236703      -2.04976197       0.01110681
H       -2.24918772      -1.46459885       0.68282633
H       -1.37507591      -0.57883172       1.89609084
H       -3.20477643       0.54951710       0.09396413
H        0.81977643       1.77793231      -1.36861023
15
Frame=7 idx=010964 GeodesicLength=0.8904963438854111 rxn_smarts="[C:1]([C:2]1=[C:3]([H:11])[C:4]([H:12])([H:13])[C@@:5]2([H:14])[O:6][C@@:7]12[H:15])([H:8])([H:9])[H:10]>>[C:1]([C:7](=[C:2]=[C:3]([C:4]([C:5](=[O:6])[H:14])([H:12])[H:13])[H:11])[H:15])([H:8])([H:9])[H:10]"
C        2.25277788       0.08536925      -0.48202485
C        0.48037567      -0.12612578      -0.47417765
C       -0.25222738      -1.05621551       0.10291621
C       -1.52271657      -0.67848615       0.80721898
C       -2.05340806       0.64780781       0.32612098
O       -1.58267241       1.77311846       0.53308515
C        0.75220080       1.19198130      -0.46247615
H        2.76682279       0.68000018      -1.23729154
H        2.42140187      -0.95691303      -0.76539972
H        2.72645488       0.24827036       0.48302782
H        0.06554550      -2.08875145       0.04259705
H       -2.28464959      -1.44486890       0.63064719
H       -1.40398210      -0.63725112       1.89568244
H       -3.11164472       0.62244091       0.00340279
H        0.74572146       1.73962367      -1.40332871
15
Frame=8 idx=010964 GeodesicLength=1.0257338450477773 rxn_smarts="[C:1]([C:2]1=[C:3]([H:11])[C:4]([H:12])([H:13])[C@@:5]2([H:14])[O:6][C@@:7]12[H:15])([H:8])([H:9])[H:10]>>[C:1]([C:7](=[C:2]=[C:3]([C:4]([C:5](=[O:6])[H:14])([H:12])[H:13])[H:11])[H:15])([H:8])([H:9])[H:10]"
C        2.24121347       0.11120514      -0.48189986
C        0.47070485      -0.17376048      -0.48912205
C       -0.25723614      -1.09141022       0.11297439
C       -1.53165626      -0.69301569       0.80064217
C       -1.98867030       0.66927540       0.34340417
O       -1.49447789       1.76662657       0.65647488
C        0.68698427       1.15882835      -0.48714840
H        2.73324675       0.67501248      -1.27496667
H        2.46165416      -0.93899613      -0.68948908
H        2.71290256       0.35520306       0.46774517
H        0.05651415      -2.12622886       0.07088476
H       -2.31734715      -1.42280792       0.57928451
H       -1.43511159      -0.69063816       1.89163615
H       -3.01300526       0.69738770      -0.07084066
H        0.67428438       1.70331877      -1.42957947
15
Frame=9 idx=010964 GeodesicLength=1.1621097435930456 rxn_smarts="[C:1]([C:2]1=[C:3]([H:11])[C:4]([H:12])([H:13])[C@@:5]2([H:14])[O:6][C@@:7]12[H:15])([H:8])([H:9])[H:10]>>[C:1]([C:7](=[C:2]=[C:3]([C:4]([C:5](=[O:6])[H:14])([H:12])[H:13])[H:11])[H:15])([H:8])([H:9])[H:10]"
C        2.22929050       0.13612144      -0.48209596
C        0.46279302      -0.21832132      -0.49973675
C       -0.26376652      -1.12484590       0.12052574
C       -1.54081193      -0.70589640       0.79333213
C       -1.92742625       0.68607595       0.35912650
O       -1.41031954       1.75113215       0.75998292
C        0.62624235       1.12609611      -0.50431506
H        2.70085347       0.66434566      -1.31170085
H        2.49788416      -0.91494841      -0.61338860
H        2.69814168       0.45915856       0.44596918
H        0.04462385      -2.16193559       0.09448122
H       -2.34677335      -1.39932322       0.53197414
H       -1.46573439      -0.73700697       1.88515882
H       -2.91214107       0.76864113      -0.13290939
H        0.60714401       1.67070682      -1.44640404
15
Frame=10 idx=010964 GeodesicLength=1.29932980500954 rxn_smarts="[C:1]([C:2]1=[C:3]([H:11])[C:4]([H:12])([H:13])[C@@:5]2([H:14])[O:6][C@@:7]12[H:15])([H:8])([H:9])[H:10]>>[C:1]([C:7](=[C:2]=[C:3]([C:4]([C:5](=[O:6])[H:14])([H:12])[H:13])[H:11])[H:15])([H:8])([H:9])[H:10]"
C        2.21749705       0.15990103      -0.48234969
C        0.45647781      -0.25965236      -0.50719899
C       -0.27191735      -1.15653832       0.12487830
C       -1.54995092      -0.71709204       0.78527767
C       -1.86999606       0.69879863       0.37246427
O       -1.33042612       1.72957164       0.84699130
C        0.57014405       1.09434179      -0.51529778
H        2.67076392       0.64770647      -1.34662778
H        2.53043254      -0.88544491      -0.53673671
H        2.68238401       0.55986733       0.41822835
H        0.03015088      -2.19588434       0.11334488
H       -2.37325655      -1.37505830       0.48899327
H       -1.49469617      -0.77667520       1.87670055
H       -2.81256359       0.83432280      -0.18322503
H        0.54495651       1.64183577      -1.45544261
15
Frame=11 idx=010964 GeodesicLength=1.437063496289342 rxn_smarts="[C:1]([C:2]1=[C:3]([H:11])[C:4]([H:12])([H:13])[C@@:5]2([H:14])[O:6][C@@:7]12[H:15])([H:8])([H:9])[H:10]>>[C:1]([C:7](=[C:2]=[C:3]([C:4]([C:5](=[O:6])[H:14])([H:12])[H:13])[H:11])[H:15])([H:8])([H:9])[H:10]"
C        2.20620584       0.18226583      -0.48286098
C        0.45149750      -0.29757372      -0.51194882
C       -0.28142215      -1.18631517       0.12652326
C       -1.55888562      -0.72659624       0.77697667
C       -1.81663808       0.70803108       0.38309817
O       -1.25559932       1.70415933       0.92021540
C        0.51881712       1.06411132      -0.52035563
H        2.64350232       0.62549267      -1.37923706
H        2.55928983      -0.85115867      -0.46085082
H        2.66636129       0.65610900       0.38462821
H        0.01333844      -2.22795699       0.12778413
H       -2.39700124      -1.35068169       0.45072982
H       -1.52144763      -0.80995282       1.86719668
H       -2.71600077       0.89293633      -0.22488562
H        0.48798248       1.61712974      -1.45701340
15
Frame=12 idx=010964 GeodesicLength=1.575044172851338 rxn_smarts="[C:1]([C:2]1=[C:3]([H:11])[C:4]([H:12])([H:13])[C@@:5]2([H:14])[O:6][C@@:7]12[H:15])([H:8])([H:9])[H:10]>>[C:1]([C:7](=[C:2]=[C:3]([C:4]([C:5](=[O:6])[H:14])([H:12])[H:13])[H:11])[H:15])([H:8])([H:9])[H:10]"
C        2.19571991       0.20323408      -0.48350931
C        0.44765537      -0.33217517      -0.51452422
C       -0.29215040      -1.21422409       0.12547791
C       -1.56749141      -0.73461180       0.76862943
C       -1.76723994       0.71438020       0.39114441
O       -1.18583107       1.67632279       0.98212202
C        0.47209045       1.03567412      -0.52043291
H        2.61954101       0.59772340      -1.40911157
H        2.58467579      -0.81247254      -0.38536896
H        2.65044260       0.74800786       0.34531861
H       -0.00570209      -2.25826031       0.13754352
H       -2.41845498      -1.32664350       0.41710839
H       -1.54550442      -0.83772495       1.85718474
H       -2.62392766       0.94438986      -0.25928636
H        0.43617682       1.59638007      -1.45229570
15
Frame=13 idx=010964 GeodesicLength=1.7130832024375158 rxn_smarts="[C:1]([C:2]1=[C:3]([H:11])[C:4]([H:12])([H:13])[C@@:5]2([H:14])[O:6][C@@:7]12[H:15])([H:8])([H:9])[H:10]>>[C:1]([C:7](=[C:2]=[C:3]([C:4]([C:5](=[O:6])[H:14])([H:12])[H:13])[H:11])[H:15])([H:8])([H:9])[H:10]"
C        2.18620583       0.22291331      -0.48427846
C        0.44477096      -0.36370331      -0.51536664
C       -0.30392355      -1.24035447       0.12191934
C       -1.57574399      -0.74138563       0.76029362
C       -1.72149384       0.71840736       0.39694393
O       -1.12077963       1.64690902       1.03499296
C        0.42963734       1.00910000      -0.51646381
H        2.59920231       0.56461307      -1.43585888
H        2.60677061      -0.76947518      -0.31017413
H        2.63472839       0.83560055       0.30037622
H       -0.02653607      -2.28685237       0.14312438
H       -2.43803895      -1.30316876       0.38755646
H       -1.56688152      -0.86107484       1.84694718
H       -2.53712636       0.98931450      -0.28754242
H        0.38920848       1.57915675      -1.44246974
15
Frame=14 idx=010964 GeodesicLength=1.8509589408102858 rxn_smarts="[C:1]([C:2]1=[C:3]([H:11])[C:4]([H:12])([H:13])[C@@:5]2([H:14])[O:6][C@@:7]12[H:15])([H:8])([H:9])[H:10]>>[C:1]([C:7](=[C:2]=[C:3]([C:4]([C:5](=[O:6])[H:14])([H:12])[H:13])[H:11])[H:15])([H:8])([H:9])[H:10]"
C        2.17778488       0.24139341      -0.48512937
C        0.44269347      -0.39238341      -0.51478290
C       -0.31656369      -1.26475525       0.11605169
C       -1.58359272      -0.74710698       0.75208579
C       -1.67914594       0.72054072       0.40072968
O       -1.06029880       1.61659250       1.08044649
C        0.39115769       0.98441788      -0.50906455
H        2.58270338       0.52642969      -1.45903520
H        2.62569411      -0.72217814      -0.23542311
H        2.61940028       0.91869827       0.24987451
H       -0.04892775      -2.31379590       0.14468477
H       -2.45606689      -1.28046842       0.36181357
H       -1.58551753      -0.88077142       1.83676198
H       -2.45614026       1.02822822      -0.31071529
H        0.34681977       1.56515882      -1.42829804
15
Frame=15 idx=010964 GeodesicLength=1.9885624867189546 rxn_smarts="[C:1]([C:2]1=[C:3]([H:11])[C:4]([H:12])([H:13])[C@@:5]2([H:14])[O:6][C@@:7]12[H:15])([H:8])([H:9])[H:10]>>[C:1]([C:7](=[C:2]=[C:3]([C:4]([C:5](=[O:6])[H:14])([H:12])[H:13])[H:11])[H:15])([H:8])([H:9])[H:10]"
C        2.17046767       0.25879091      -0.48615336
C        0.44126105      -0.41850675      -0.51301370
C       -0.32987064      -1.28748742       0.10822802
C       -1.59106933      -0.75197475       0.74405076
C       -1.63989101       0.72115208       0.40290786
O       -1.00403113       1.58572809       1.12002168
C        0.35626673       0.96155024      -0.49881553
H        2.57014253       0.48370014      -1.47825285
H        2.64156571      -0.67049888      -0.16158489
H        2.60439858       0.99697881       0.19396039
H       -0.07245171      -2.33910344       0.14292012
H       -2.47279404      -1.25860685       0.33929672
H       -1.60173850      -0.89765378       1.82675442
H       -2.38082325       1.06195537      -0.32980334
H        0.30856733       1.55397623      -1.41051627
15
Frame=16 idx=010964 GeodesicLength=2.1258289375694077 rxn_smarts="[C:1]([C:2]1=[C:3]([H:11])[C:4]([H:12])([H:13])[C@@:5]2([H:14])[O:6][C@@:7]12[H:15])([H:8])([H:9])[H:10]>>[C:1]([C:7](=[C:2]=[C:3]([C:4]([C:5](=[O:6])[H:14])([H:12])[H:13])[H:11])[H:15])([H:8])([H:9])[H:10]"
C        2.16422196       0.27519582      -0.48741239
C        0.44032852      -0.44235271      -0.51025979
C       -0.34367036      -1.30860746       0.09876613
C       -1.59816593      -0.75613723       0.73629051
C       -1.60346142       0.72053150       0.40382242
O       -0.95167584       1.55460745       1.15486415
C        0.32459221       0.94038517      -0.48618631
H        2.56157726       0.43700215      -1.49310459
H        2.65451247      -0.61432729      -0.08913906
H        2.58956618       1.07008846       0.13290204
H       -0.09692649      -2.36284262       0.13811066
H       -2.48839886      -1.23762567       0.31967596
H       -1.61573750      -0.91232984       1.81707148
H       -2.31081712       1.09116625      -0.34569423
H        0.27405491       1.54524602      -1.38970699
