13
Frame=0 idx=011255 GeodesicLength=0.0 rxn_smarts="[C:1]([C@@:2]1([H:11])[O:3][C:4](=[O:5])[C:6]([H:12])=[C:7]1[H:13])([H:8])([H:9])[H:10]>>[C:1](/[C:2]([O:3][H:11])=[C:7](/[C:6](=[C:4]=[O:5])[H:12])[H:13])([H:8])([H:9])[H:10]"
C       -1.89612881      -0.12499341      -0.31943285
C       -0.55178222       0.12124371       0.26915356
O        0.27381744      -1.16759693       0.43306329
C        1.72107877      -0.80337519       0.22451644
O        2.53246052      -1.64444803       0.43913858
C        1.68331063       0.56418395      -0.13942868
C        0.40356758       1.05758998      -0.10637222
H       -2.49937772      -0.79562779       0.29169191
H       -2.42121436       0.82994743      -0.37856620
H       -1.82594592      -0.54215065      -1.32922826
H       -0.13209279      -0.68097631       1.33575347
H        2.58290945       1.11094345      -0.36760638
H        0.12939748       2.07525983      -0.35268272
13
Frame=1 idx=011255 GeodesicLength=0.0737175201311965 rxn_smarts="[C:1]([C@@:2]1([H:11])[O:3][C:4](=[O:5])[C:6]([H:12])=[C:7]1[H:13])([H:8])([H:9])[H:10]>>[C:1](/[C:2]([O:3][H:11])=[C:7](/[C:6](=[C:4]=[O:5])[H:12])[H:13])([H:8])([H:9])[H:10]"
C       -1.89441318      -0.12260725      -0.31932061
C       -0.54914020       0.11424621       0.27181412
O        0.26903384      -1.16834431       0.43405224
C        1.73347944      -0.79881273       0.22832748
O        2.54487123      -1.64306087       0.42501518
C        1.68688150       0.56791725      -0.13470762
C        0.40373097       1.05604252      -0.10095570
H       -2.50460040      -0.78361284       0.29567042
H       -2.41235910       0.83546900      -0.38823263
H       -1.82447563      -0.54921764      -1.32502333
H       -0.16089615      -0.69396583       1.34523667
H        2.58252269       1.11570663      -0.37595165
H        0.12536499       2.07023988      -0.35592456
13
Frame=2 idx=011255 GeodesicLength=0.1476060225662673 rxn_smarts="[C:1]([C@@:2]1([H:11])[O:3][C:4](=[O:5])[C:6]([H:12])=[C:7]1[H:13])([H:8])([H:9])[H:10]>>[C:1](/[C:2]([O:3][H:11])=[C:7](/[C:6](=[C:4]=[O:5])[H:12])[H:13])([H:8])([H:9])[H:10]"
C       -1.89235603      -0.12024868      -0.31947379
C       -0.54655604       0.10728028       0.27506245
O        0.26417903      -1.16905722       0.43622642
C        1.74610109      -0.79421266       0.23208538
O        2.55739605      -1.64137371       0.41087379
C        1.69033345       0.57154925      -0.13032869
C        0.40388297       1.05457204      -0.09466615
H       -2.50976364      -0.77158451       0.29890328
H       -2.40316860       0.84079885      -0.39840846
H       -1.82219052      -0.55627617      -1.32098293
H       -0.19080606      -0.70680876       1.35485486
H        2.58150836       1.11989414      -0.38671773
H        0.12143995       2.06546714      -0.35742841
13
Frame=3 idx=011255 GeodesicLength=0.22168171682812038 rxn_smarts="[C:1]([C@@:2]1([H:11])[O:3][C:4](=[O:5])[C:6]([H:12])=[C:7]1[H:13])([H:8])([H:9])[H:10]>>[C:1](/[C:2]([O:3][H:11])=[C:7](/[C:6](=[C:4]=[O:5])[H:12])[H:13])([H:8])([H:9])[H:10]"
C       -1.89000939      -0.11793639      -0.31978369
C       -0.54400707       0.10036379       0.27881867
O        0.25924027      -1.16972770       0.43961590
C        1.75892579      -0.78970157       0.23530894
O        2.57000369      -1.63947124       0.39654646
C        1.69365077       0.57494190      -0.12681290
C        0.40404065       1.05309491      -0.08785753
H       -2.51487868      -0.75945552       0.30164335
H       -2.39365425       0.84592159      -0.40904533
H       -1.81927616      -0.56347984      -1.31694248
H       -0.22171933      -0.71928674       1.36456991
H        2.58005418       1.12389257      -0.39840580
H        0.11762953       2.06084424      -0.35765550
13
Frame=4 idx=011255 GeodesicLength=0.29590050643605453 rxn_smarts="[C:1]([C@@:2]1([H:11])[O:3][C:4](=[O:5])[C:6]([H:12])=[C:7]1[H:13])([H:8])([H:9])[H:10]>>[C:1](/[C:2]([O:3][H:11])=[C:7](/[C:6](=[C:4]=[O:5])[H:12])[H:13])([H:8])([H:9])[H:10]"
C       -1.88737593      -0.11569381      -0.32021485
C       -0.54148690       0.09350945       0.28308492
O        0.25421801      -1.17033477       0.44429965
C        1.77191436      -0.78534968       0.23763903
O        2.58265526      -1.63743067       0.38197864
C        1.69682463       0.57806282      -0.12432097
C        0.40421154       1.05158427      -0.08063785
H       -2.51995201      -0.74719128       0.30395739
H       -2.38379679       0.85079849      -0.42014640
H       -1.81576585      -0.57090916      -1.31282304
H       -0.25362094      -0.73126401       1.37439461
H        2.57825494       1.12787812      -0.41044206
H        0.11391968       2.05634024      -0.35676908
13
Frame=5 idx=011255 GeodesicLength=0.3702541481330534 rxn_smarts="[C:1]([C@@:2]1([H:11])[O:3][C:4](=[O:5])[C:6]([H:12])=[C:7]1[H:13])([H:8])([H:9])[H:10]>>[C:1](/[C:2]([O:3][H:11])=[C:7](/[C:6](=[C:4]=[O:5])[H:12])[H:13])([H:8])([H:9])[H:10]"
C       -1.88450412      -0.11354348      -0.32068027
C       -0.53898908       0.08673700       0.28780875
O        0.24909852      -1.17085498       0.45033371
C        1.78503623      -0.78130720       0.23860062
O        2.59534163      -1.63528209       0.36702056
C        1.69979935       0.58080414      -0.12328783
C        0.40440918       1.04996781      -0.07330268
H       -2.52499463      -0.73472514       0.30605750
H       -2.37362241       0.85541099      -0.43171091
H       -1.81180129      -0.57872004      -1.30848853
H       -0.28643826      -0.74252691       1.38432759
H        2.57635058       1.13215629      -0.42156425
H        0.11031430       2.05188361      -0.35511427
13
Frame=6 idx=011255 GeodesicLength=0.44465389872633176 rxn_smarts="[C:1]([C@@:2]1([H:11])[O:3][C:4](=[O:5])[C:6]([H:12])=[C:7]1[H:13])([H:8])([H:9])[H:10]>>[C:1](/[C:2]([O:3][H:11])=[C:7](/[C:6](=[C:4]=[O:5])[H:12])[H:13])([H:8])([H:9])[H:10]"
C       -1.88130687      -0.11148769      -0.32126345
C       -0.53653224       0.08004162       0.29313458
O        0.24389906      -1.17126675       0.45784105
C        1.79820779      -0.77759116       0.23795670
O        2.60806243      -1.63302176       0.35201307
C        1.70260311       0.58330677      -0.12319680
C        0.40463135       1.04831615      -0.06548790
H       -2.52999636      -0.72214093       0.30766453
H       -2.36303207       0.85971930      -0.44377477
H       -1.80713734      -0.58679889      -1.30402748
H       -0.32032129      -0.75314202       1.39441061
H        2.57413147       1.13652024      -0.43296213
H        0.10679097       2.04754512      -0.35230801
13
Frame=7 idx=011255 GeodesicLength=0.5190343944398075 rxn_smarts="[C:1]([C@@:2]1([H:11])[O:3][C:4](=[O:5])[C:6]([H:12])=[C:7]1[H:13])([H:8])([H:9])[H:10]>>[C:1](/[C:2]([O:3][H:11])=[C:7](/[C:6](=[C:4]=[O:5])[H:12])[H:13])([H:8])([H:9])[H:10]"
C       -1.87778305      -0.10955817      -0.32193193
C       -0.53411930       0.07344923       0.29907631
O        0.23862901      -1.17151780       0.46693765
C        1.81134040      -0.77432194       0.23526858
O        2.62078778      -1.63065833       0.33686134
C        1.70520624       0.58553322      -0.12417159
C        0.40489025       1.04659982      -0.05731348
H       -2.53495752      -0.70941503       0.30885111
H       -2.35201028       0.86368033      -0.45637895
H       -1.80178411      -0.59526131      -1.29935044
H       -0.35526694      -0.76294488       1.40466709
H        2.57171823       1.14110743      -0.44402547
H        0.10334930       2.04330743      -0.34849021
13
Frame=8 idx=011255 GeodesicLength=0.5932956868301554 rxn_smarts="[C:1]([C@@:2]1([H:11])[O:3][C:4](=[O:5])[C:6]([H:12])=[C:7]1[H:13])([H:8])([H:9])[H:10]>>[C:1](/[C:2]([O:3][H:11])=[C:7](/[C:6](=[C:4]=[O:5])[H:12])[H:13])([H:8])([H:9])[H:10]"
C       -1.87389502      -0.10776032      -0.32269565
C       -0.53175727       0.06696547       0.30569681
O        0.23331366      -1.17157287       0.47767773
C        1.82428006      -0.77164152       0.22992663
O        2.63356398      -1.62815290       0.32199780
C        1.70761410       0.58754855      -0.12598900
C        0.40519284       1.04484527      -0.04865324
H       -2.53986762      -0.69658249       0.30952099
H       -2.34049264       0.86726269      -0.46951275
H       -1.79565554      -0.60407581      -1.29444786
H       -0.39131931      -0.77193011       1.41506889
H        2.56903819       1.14588527      -0.45507914
H        0.09998458       2.03920878      -0.34351121
13
Frame=9 idx=011255 GeodesicLength=0.6666823417360599 rxn_smarts="[C:1]([C@@:2]1([H:11])[O:3][C:4](=[O:5])[C:6]([H:12])=[C:7]1[H:13])([H:8])([H:9])[H:10]>>[C:1](/[C:2]([O:3][H:11])=[C:7](/[C:6](=[C:4]=[O:5])[H:12])[H:13])([H:8])([H:9])[H:10]"
C       -1.86935313      -0.10628669      -0.32369264
C       -0.52952631       0.06086163       0.31336524
O        0.22808801      -1.17088230       0.49114164
C        1.83668923      -0.76936157       0.22242039
O        2.64563392      -1.62590773       0.30510653
C        1.70978692       0.58952671      -0.12794336
C        0.40554076       1.04329541      -0.03904708
H       -2.54454101      -0.68383201       0.30941719
H       -2.32828662       0.87019911      -0.48381021
H       -1.78794376      -0.61375408      -1.28927791
H       -0.42880087      -0.77967982       1.42609532
H        2.56599960       1.15052829      -0.46619367
H        0.09671326       2.03529305      -0.33758144
13
Frame=10 idx=011255 GeodesicLength=0.7397422520589434 rxn_smarts="[C:1]([C@@:2]1([H:11])[O:3][C:4](=[O:5])[C:6]([H:12])=[C:7]1[H:13])([H:8])([H:9])[H:10]>>[C:1](/[C:2]([O:3][H:11])=[C:7](/[C:6](=[C:4]=[O:5])[H:12])[H:13])([H:8])([H:9])[H:10]"
C       -1.86429291      -0.10505577      -0.32480013
C       -0.52737467       0.05499142       0.32192995
O        0.22290756      -1.16971597       0.50672864
C        1.84853445      -0.76774492       0.21171731
O        2.65740768      -1.62369182       0.28786741
C        1.71176666       0.59137870      -0.13031598
C        0.40595396       1.04177026      -0.02884414
H       -2.54909583      -0.67103211       0.30867098
H       -2.31538927       0.87256002      -0.49888802
H       -1.77909647      -0.62404549      -1.28373548
H       -0.46752145      -0.78634672       1.43737142
H        2.56267712       1.15540004      -0.47712160
H        0.09352317       2.03153235      -0.33058036
13
Frame=11 idx=011255 GeodesicLength=0.8126460499519186 rxn_smarts="[C:1]([C@@:2]1([H:11])[O:3][C:4](=[O:5])[C:6]([H:12])=[C:7]1[H:13])([H:8])([H:9])[H:10]>>[C:1](/[C:2]([O:3][H:11])=[C:7](/[C:6](=[C:4]=[O:5])[H:12])[H:13])([H:8])([H:9])[H:10]"
C       -1.85868248      -0.10410414      -0.32602103
C       -0.52531735       0.04939623       0.33146129
O        0.21778858      -1.16798944       0.52459249
C        1.85968893      -0.76684987       0.19749531
O        2.66882338      -1.62153739       0.27015342
C        1.71354038       0.59310796      -0.13307741
C        0.40643174       1.04029301      -0.01801458
H       -2.55351044      -0.65820518       0.30726527
H       -2.30177334       0.87429350      -0.51483102
H       -1.76902193      -0.63504910      -1.27777673
H       -0.50749052      -0.79180699       1.44892437
H        2.55911074       1.16051995      -0.48763605
H        0.09041231       2.02793145      -0.32253532
13
Frame=12 idx=011255 GeodesicLength=0.8853812327005969 rxn_smarts="[C:1]([C@@:2]1([H:11])[O:3][C:4](=[O:5])[C:6]([H:12])=[C:7]1[H:13])([H:8])([H:9])[H:10]>>[C:1](/[C:2]([O:3][H:11])=[C:7](/[C:6](=[C:4]=[O:5])[H:12])[H:13])([H:8])([H:9])[H:10]"
C       -1.85242674      -0.10350470      -0.32736510
C       -0.52337496       0.04416422       0.34207300
O        0.21278415      -1.16551007       0.54498940
C        1.86992836      -0.76666173       0.17966570
O        2.67961975      -1.61959134       0.25145342
C        1.71510253       0.59474839      -0.13603532
C        0.40697895       1.03891678      -0.00651867
H       -2.55773309      -0.64539198       0.30511697
H       -2.28729302       0.87524205      -0.53178220
H       -1.75750948      -0.64692681      -1.27128041
H       -0.54876387      -0.79592176       1.46077927
H        2.55531118       1.16591642      -0.49758021
H        0.08737624       2.02452055      -0.31351584
13
Frame=13 idx=011255 GeodesicLength=0.9580447228723691 rxn_smarts="[C:1]([C@@:2]1([H:11])[O:3][C:4](=[O:5])[C:6]([H:12])=[C:7]1[H:13])([H:8])([H:9])[H:10]>>[C:1](/[C:2]([O:3][H:11])=[C:7](/[C:6](=[C:4]=[O:5])[H:12])[H:13])([H:8])([H:9])[H:10]"
C       -1.84538194      -0.10339000      -0.32890362
C       -0.52157756       0.03943348       0.35395193
O        0.20796033      -1.16202323       0.56842576
C        1.87914306      -0.76692647       0.15894849
O        2.68926900      -1.61821667       0.23017742
C        1.71644980       0.59640701      -0.13882042
C        0.40759229       1.03774817       0.00576987
H       -2.56169102      -0.63267839       0.30210091
H       -2.27184674       0.87521776      -0.55009694
H       -1.74418401      -0.65999223      -1.26419229
H       -0.59144321      -0.79840057       1.47313818
H        2.55129676       1.17152027      -0.50678523
H        0.08441324       2.02130086      -0.30371407
13
Frame=14 idx=011255 GeodesicLength=1.0307880884369383 rxn_smarts="[C:1]([C@@:2]1([H:11])[O:3][C:4](=[O:5])[C:6]([H:12])=[C:7]1[H:13])([H:8])([H:9])[H:10]>>[C:1](/[C:2]([O:3][H:11])=[C:7](/[C:6](=[C:4]=[O:5])[H:12])[H:13])([H:8])([H:9])[H:10]"
C       -1.83751559      -0.10378778      -0.33058228
C       -0.51993202       0.03525094       0.36711470
O        0.20334682      -1.15739896       0.59482864
C        1.88712262      -0.76773835       0.13500729
O        2.69764261      -1.61743117       0.20657232
C        1.71757655       0.59809060      -0.14141727
C        0.40826762       1.03681934       0.01878724
H       -2.56533936      -0.62010000       0.29819333
H       -2.25532761       0.87410770      -0.56969628
H       -1.72904439      -0.67425183      -1.25636104
H       -0.63542661      -0.79927822       1.48579622
H        2.54712339       1.17741029      -0.51505154
H        0.08150596       2.01830742      -0.29319134
13
Frame=15 idx=011255 GeodesicLength=1.103779608804065 rxn_smarts="[C:1]([C@@:2]1([H:11])[O:3][C:4](=[O:5])[C:6]([H:12])=[C:7]1[H:13])([H:8])([H:9])[H:10]>>[C:1](/[C:2]([O:3][H:11])=[C:7](/[C:6](=[C:4]=[O:5])[H:12])[H:13])([H:8])([H:9])[H:10]"
C       -1.82869069      -0.10483273      -0.33245715
C       -0.51846582       0.03175935       0.38170763
O        0.19899118      -1.15137556       0.62459200
C        1.89380256      -0.76877471       0.10882889
O        2.70409243      -1.61765696       0.17899494
C        1.71849337       0.59989558      -0.14349301
C        0.40899322       1.03624037       0.03259010
H       -2.56859040      -0.60774762       0.29328193
H       -2.23760446       0.87169060      -0.59088374
H       -1.71177136      -0.69000843      -1.24768442
H       -0.68073077      -0.79831948       1.49886111
H        2.54284126       1.18358586      -0.52213640
H        0.07863949       2.01554372      -0.28220187
13
Frame=16 idx=011255 GeodesicLength=1.1772219666075963 rxn_smarts="[C:1]([C@@:2]1([H:11])[O:3][C:4](=[O:5])[C:6]([H:12])=[C:7]1[H:13])([H:8])([H:9])[H:10]>>[C:1](/[C:2]([O:3][H:11])=[C:7](/[C:6](=[C:4]=[O:5])[H:12])[H:13])([H:8])([H:9])[H:10]"
C       -1.81883763      -0.10659801      -0.33451575
C       -0.51719482       0.02904849       0.39777260
O        0.19491311      -1.14377044       0.65775723
C        1.89911089      -0.76987952       0.08092033
O        2.70819542      -1.61911238       0.14679969
C        1.71921271       0.60189187      -0.14486064
C        0.40975216       1.03609059       0.04715537
H       -2.57136674      -0.59569930       0.28731568
H       -2.21858386       0.86781748      -0.61372185
H       -1.69226263      -0.70738228      -1.23804389
H       -0.72723727      -0.79548965       1.51221489
H        2.53851003       1.19005087      -0.52787425
H        0.07578863       2.01303230      -0.27091941
