15
Frame=0 idx=011901 GeodesicLength=0.0 rxn_smarts="[O:1]([C@@:2]1([H:9])[C:3]([H:10])([H:11])[C@:4]2([H:12])[C:5]([H:13])([H:14])[C@@:6]1([H:15])[O:7]2)[H:8]>>[O:1]([C@@:2]1([H:9])[C:3]([H:10])([H:11])[O:7][C@@:6]1([C:5]([C:4][H:12])([H:13])[H:14])[H:15])[H:8]"
O        2.08486084      -1.15619952       0.28374758
C        0.98742591      -0.29598778       0.45375256
C        0.97350733       0.90147358      -0.47538281
C       -1.12858819       1.12618756      -0.07839525
C       -1.53151001      -0.15773651       0.63393954
C       -0.36299631      -0.80223455      -0.06917458
O       -0.45717697       0.14858573      -1.20142122
H        2.12005686      -1.45107365      -0.62965886
H        0.97241063      -0.02631653       1.50769229
H        1.09482770       1.89441737      -0.07131344
H        1.55763327       0.76011525      -1.38960568
H       -1.93045439       1.66469651      -0.58754104
H       -1.51369598      -0.17030695       1.72462991
H       -2.47484296      -0.58652883       0.27206382
H       -0.39145768      -1.84909175      -0.37333285
15
Frame=1 idx=011901 GeodesicLength=0.029508697515265785 rxn_smarts="[O:1]([C@@:2]1([H:9])[C:3]([H:10])([H:11])[C@:4]2([H:12])[C:5]([H:13])([H:14])[C@@:6]1([H:15])[O:7]2)[H:8]>>[O:1]([C@@:2]1([H:9])[C:3]([H:10])([H:11])[O:7][C@@:6]1([C:5]([C:4][H:12])([H:13])[H:14])[H:15])[H:8]"
O        2.08461729      -1.15744381       0.27219225
C        0.98743634      -0.29971868       0.45343692
C        0.96428776       0.90481211      -0.46880909
C       -1.12621207       1.12182476      -0.09147652
C       -1.53041349      -0.15425514       0.63483302
C       -0.36415729      -0.80641996      -0.06558558
O       -0.45435159       0.13559051      -1.20441051
H        2.11454290      -1.44537539      -0.64369049
H        0.97780680      -0.03621908       1.50903560
H        1.09062302       1.89309095      -0.05302856
H        1.56014311       0.77799275      -1.37757211
H       -1.92452872       1.65850018      -0.60782783
H       -1.50793435      -0.15287855       1.72551870
H       -2.47559282      -0.58454614       0.28085358
H       -0.39626689      -1.85495450      -0.36346937
15
Frame=2 idx=011901 GeodesicLength=0.059067509026497454 rxn_smarts="[O:1]([C@@:2]1([H:9])[C:3]([H:10])([H:11])[C@:4]2([H:12])[C:5]([H:13])([H:14])[C@@:6]1([H:15])[O:7]2)[H:8]>>[O:1]([C@@:2]1([H:9])[C:3]([H:10])([H:11])[O:7][C@@:6]1([C:5]([C:4][H:12])([H:13])[H:14])[H:15])[H:8]"
O        2.08431620      -1.15862753       0.26064712
C        0.98747941      -0.30342098       0.45309932
C        0.95511824       0.90804958      -0.46227150
C       -1.12382650       1.11739134      -0.10446124
C       -1.52926969      -0.15073654       0.63568672
C       -0.36530211      -0.81054312      -0.06201105
O       -0.45142130       0.12272307      -1.20726641
H        2.10894709      -1.43963805      -0.65761576
H        0.98327305      -0.04607197       1.51028489
H        1.08618647       1.89155195      -0.03483667
H        1.56243969       0.79573291      -1.36533337
H       -1.91856548       1.65214008      -0.62802560
H       -1.50205442      -0.13547087       1.72616953
H       -2.47628436      -0.58239159       0.28960320
H       -0.40103627      -1.86068826      -0.35366917
15
Frame=3 idx=011901 GeodesicLength=0.08869820385808994 rxn_smarts="[O:1]([C@@:2]1([H:9])[C:3]([H:10])([H:11])[C@:4]2([H:12])[C:5]([H:13])([H:14])[C@@:6]1([H:15])[O:7]2)[H:8]>>[O:1]([C@@:2]1([H:9])[C:3]([H:10])([H:11])[O:7][C@@:6]1([C:5]([C:4][H:12])([H:13])[H:14])[H:15])[H:8]"
O        2.08395913      -1.15975581       0.24909513
C        0.98755621      -0.30710299       0.45273894
C        0.94599591       0.91118948      -0.45575863
C       -1.12143422       1.11288673      -0.11736430
C       -1.52807660      -0.14717423       0.63650446
C       -0.36643333      -0.81460661      -0.05844745
O       -0.44838287       0.10997352      -1.20999379
H        2.10326993      -1.43385375      -0.67145697
H        0.98881423      -0.05589436       1.51144271
H        1.08150459       1.88980261      -0.01671016
H        1.56453353       0.81335310      -1.35287842
H       -1.91256387       1.64560094      -0.64816875
H       -1.49604807      -0.11805845       1.72658712
H       -2.47691916      -0.58006100       0.29832781
H       -0.40577538      -1.86629919      -0.34391770
15
Frame=4 idx=011901 GeodesicLength=0.1183822013385589 rxn_smarts="[O:1]([C@@:2]1([H:9])[C:3]([H:10])([H:11])[C@:4]2([H:12])[C:5]([H:13])([H:14])[C@@:6]1([H:15])[O:7]2)[H:8]>>[O:1]([C@@:2]1([H:9])[C:3]([H:10])([H:11])[O:7][C@@:6]1([C:5]([C:4][H:12])([H:13])[H:14])[H:15])[H:8]"
O        2.08354597      -1.16082132       0.23756430
C        0.98766289      -0.31075569       0.45235663
C        0.93692403       0.91422871      -0.44928905
C       -1.11902612       1.10831593      -0.13015967
C       -1.52683888      -0.14357975       0.63728343
C       -0.36754965      -0.81860940      -0.05490151
O       -0.44525544       0.09735299      -1.21259402
H        2.09752276      -1.42803108      -0.68518149
H        0.99441894      -0.06565988       1.51250573
H        1.07658675       1.88785534       0.00130233
H        1.56642609       0.83082013      -1.34022903
H       -1.90651413       1.63891618      -0.66820030
H       -1.48992852      -0.10068910       1.72677068
H       -2.47749982      -0.57755822       0.30700628
H       -0.41047488      -1.87178484      -0.33423430
15
Frame=5 idx=011901 GeodesicLength=0.14810105640238325 rxn_smarts="[O:1]([C@@:2]1([H:9])[C:3]([H:10])([H:11])[C@:4]2([H:12])[C:5]([H:13])([H:14])[C@@:6]1([H:15])[O:7]2)[H:8]>>[O:1]([C@@:2]1([H:9])[C:3]([H:10])([H:11])[O:7][C@@:6]1([C:5]([C:4][H:12])([H:13])[H:14])[H:15])[H:8]"
O        2.08307661      -1.16181709       0.22608252
C        0.98779503      -0.31436989       0.45195319
C        0.92790545       0.91716458      -0.44288196
C       -1.11659378       1.10368410      -0.14282163
C       -1.52556116      -0.13996493       0.63802153
C       -0.36864959      -0.82255017      -0.05137988
O       -0.44205793       0.08487167      -1.21506852
H        2.09171661      -1.42217934      -0.69875766
H        1.00007456      -0.07534179       1.51347136
H        1.07144578       1.88572317       0.01915368
H        1.56811986       0.84810147      -1.32740966
H       -1.90040733       1.63212024      -0.68806448
H       -1.48371113      -0.08341079       1.72672174
H       -2.47802808      -0.57488907       0.31561793
H       -0.41512492      -1.87714216      -0.32463817
15
Frame=6 idx=011901 GeodesicLength=0.17783458542153888 rxn_smarts="[O:1]([C@@:2]1([H:9])[C:3]([H:10])([H:11])[C@:4]2([H:12])[C:5]([H:13])([H:14])[C@@:6]1([H:15])[O:7]2)[H:8]>>[O:1]([C@@:2]1([H:9])[C:3]([H:10])([H:11])[O:7][C@@:6]1([C:5]([C:4][H:12])([H:13])[H:14])[H:15])[H:8]"
O        2.08255135      -1.16273742       0.21467798
C        0.98794845      -0.31793631       0.45152990
C        0.91894367       0.91999508      -0.43655672
C       -1.11412967       1.09899748      -0.15532498
C       -1.52424801      -0.13634169       0.63871771
C       -0.36973160      -0.82642786      -0.04788873
O       -0.43880942       0.07253962      -1.21741902
H        2.08586278      -1.41631045      -0.71215381
H        1.00576945      -0.08491113       1.51433756
H        1.06609715       1.88342030       0.03679789
H        1.56961858       0.86516592      -1.31444592
H       -1.89423767       1.62524627      -0.70770763
H       -1.47741238      -0.06627214       1.72644491
H       -2.47850624      -0.57205970       0.32414286
H       -0.41971647      -1.88236797      -0.31515200
15
Frame=7 idx=011901 GeodesicLength=0.20756439470026086 rxn_smarts="[O:1]([C@@:2]1([H:9])[C:3]([H:10])([H:11])[C@:4]2([H:12])[C:5]([H:13])([H:14])[C@@:6]1([H:15])[O:7]2)[H:8]>>[O:1]([C@@:2]1([H:9])[C:3]([H:10])([H:11])[O:7][C@@:6]1([C:5]([C:4][H:12])([H:13])[H:14])[H:15])[H:8]"
O        2.08197054      -1.16357775       0.20337638
C        0.98811907      -0.32144637       0.45108820
C        0.91004160       0.92271972      -0.43033069
C       -1.11162763       1.09426255      -0.16764730
C       -1.52290383      -0.13272149       0.63937144
C       -0.37079409      -0.83024159      -0.04443361
O       -0.43552816       0.06036579      -1.21964785
H        2.07997180      -1.41043555      -0.72534214
H        1.01149243      -0.09434127       1.51510354
H        1.06055931       1.88096029       0.05419378
H        1.57092628       0.88198555      -1.30136293
H       -1.88800103       1.61832552      -0.72708261
H       -1.47104853      -0.04931702       1.72594743
H       -2.47893632      -0.56907841       0.33256308
H       -0.42424144      -1.88745997      -0.30579672
15
Frame=8 idx=011901 GeodesicLength=0.23731068870020225 rxn_smarts="[O:1]([C@@:2]1([H:9])[C:3]([H:10])([H:11])[C@:4]2([H:12])[C:5]([H:13])([H:14])[C@@:6]1([H:15])[O:7]2)[H:8]>>[O:1]([C@@:2]1([H:9])[C:3]([H:10])([H:11])[O:7][C@@:6]1([C:5]([C:4][H:12])([H:13])[H:14])[H:15])[H:8]"
O        2.08133658      -1.16434326       0.19216129
C        0.98830775      -0.32490701       0.45062641
C        0.90119589       0.92534274      -0.42419452
C       -1.10909129       1.08947935      -0.17980393
C       -1.52152787      -0.12909897       0.63998509
C       -0.37183925      -0.83399425      -0.04101101
O       -0.43221267       0.04833891      -1.22176071
H        2.07404263      -1.40455049      -0.73834403
H        1.01724741      -0.10364978       1.51577098
H        1.05482445       1.87834547       0.07137123
H        1.57205175       0.89858212      -1.28815210
H       -1.88169674       1.61134874      -0.74622154
H       -1.46461146      -0.03252091       1.72523442
H       -2.47931948      -0.56594585       0.34089047
H       -0.42870768      -1.89242682      -0.29655206
15
Frame=9 idx=011901 GeodesicLength=0.26709581607950267 rxn_smarts="[O:1]([C@@:2]1([H:9])[C:3]([H:10])([H:11])[C@:4]2([H:12])[C:5]([H:13])([H:14])[C@@:6]1([H:15])[O:7]2)[H:8]>>[O:1]([C@@:2]1([H:9])[C:3]([H:10])([H:11])[O:7][C@@:6]1([C:5]([C:4][H:12])([H:13])[H:14])[H:15])[H:8]"
O        2.08065130      -1.16503925       0.18101198
C        0.98851568      -0.32832594       0.45014233
C        0.89240203       0.92786922      -0.41813650
C       -1.10652513       1.08464786      -0.19181352
C       -1.52011848      -0.12546681       0.64056242
C       -0.37286973      -0.83768886      -0.03761679
O       -0.42885964       0.03644677      -1.22376354
H        2.06807432      -1.39864738      -0.75118562
H        1.02303959      -0.11285672       1.51634109
H        1.04888536       1.87557412       0.08836575
H        1.57300394       0.91497875      -1.27479940
H       -1.87532441       1.60430178      -0.76516536
H       -1.45809483      -0.01585289       1.72431260
H       -2.47965595      -0.56266335       0.34914229
H       -0.43312405      -1.89727729      -0.28739775
15
Frame=10 idx=011901 GeodesicLength=0.29694246179938477 rxn_smarts="[O:1]([C@@:2]1([H:9])[C:3]([H:10])([H:11])[C@:4]2([H:12])[C:5]([H:13])([H:14])[C@@:6]1([H:15])[O:7]2)[H:8]>>[O:1]([C@@:2]1([H:9])[C:3]([H:10])([H:11])[O:7][C@@:6]1([C:5]([C:4][H:12])([H:13])[H:14])[H:15])[H:8]"
O        2.07991581      -1.16567018       0.16991138
C        0.98874376      -0.33171119       0.44963416
C        0.88365556       0.93030208      -0.41214653
C       -1.10393223       1.07976637      -0.20369268
C       -1.51867211      -0.12181849       0.64110608
C       -0.37388745      -0.84132776      -0.03424698
O       -0.42546626       0.02467816      -1.22566150
H        2.06206352      -1.39271994      -0.76388848
H        1.02887306      -0.12198016       1.51681458
H        1.04272950       1.87264423       0.10520785
H        1.57379072       0.93119645      -1.26129050
H       -1.86888363       1.59716998      -0.78394777
H       -1.45148854       0.00071531       1.72318477
H       -2.47994432      -0.55922791       0.35733358
H       -0.43749740      -1.90201696      -0.27831796
15
Frame=11 idx=011901 GeodesicLength=0.3268301144863092 rxn_smarts="[O:1]([C@@:2]1([H:9])[C:3]([H:10])([H:11])[C@:4]2([H:12])[C:5]([H:13])([H:14])[C@@:6]1([H:15])[O:7]2)[H:8]>>[O:1]([C@@:2]1([H:9])[C:3]([H:10])([H:11])[O:7][C@@:6]1([C:5]([C:4][H:12])([H:13])[H:14])[H:15])[H:8]"
O        2.07913209      -1.16623247       0.15888328
C        0.98898884      -0.33505410       0.44910298
C        0.87496030       0.93264166      -0.40624145
C       -1.10130729       1.07484134      -0.21542012
C       -1.51719491      -0.11816506       0.64161578
C       -0.37489118      -0.84491111      -0.03090651
O       -0.42204909       0.01304034      -1.22745660
H        2.05602144      -1.38678055      -0.77642689
H        1.03473789      -0.13099436       1.51719089
H        1.03637635       1.86956968       0.12185897
H        1.57441585       0.94721075      -1.24765001
H       -1.86237225       1.58998316      -0.80252249
H       -1.44480894       0.01714390       1.72185786
H       -2.48018870      -0.55564775       0.36544576
H       -0.44182041      -1.90664544      -0.26933146
15
Frame=12 idx=011901 GeodesicLength=0.35674285744550444 rxn_smarts="[O:1]([C@@:2]1([H:9])[C:3]([H:10])([H:11])[C@:4]2([H:12])[C:5]([H:13])([H:14])[C@@:6]1([H:15])[O:7]2)[H:8]>>[O:1]([C@@:2]1([H:9])[C:3]([H:10])([H:11])[O:7][C@@:6]1([C:5]([C:4][H:12])([H:13])[H:14])[H:15])[H:8]"
O        2.07829972      -1.16672240       0.14795217
C        0.98924697      -0.33834653       0.44855023
C        0.86631833       0.93488727      -0.40043746
C       -1.09864447       1.06987865      -0.22697640
C       -1.51569011      -0.11451743       0.64209051
C       -0.37587888      -0.84843792      -0.02759996
O       -0.41862430       0.00154119      -1.22915082
H        2.04995599      -1.38084023      -0.78877482
H        1.04062411      -0.13987554       1.51746982
H        1.02984525       1.86636144       0.13828226
H        1.57487856       0.96299852      -1.23390207
H       -1.85578752       1.58277049      -0.82084616
H       -1.43806942       0.03339407       1.72033890
H       -2.48038917      -0.55193150       0.37346005
H       -0.44608506      -1.91116008      -0.26045626
15
Frame=13 idx=011901 GeodesicLength=0.3866979030781116 rxn_smarts="[O:1]([C@@:2]1([H:9])[C:3]([H:10])([H:11])[C@:4]2([H:12])[C:5]([H:13])([H:14])[C@@:6]1([H:15])[O:7]2)[H:8]>>[O:1]([C@@:2]1([H:9])[C:3]([H:10])([H:11])[O:7][C@@:6]1([C:5]([C:4][H:12])([H:13])[H:14])[H:15])[H:8]"
O        2.07742096      -1.16714559       0.13710035
C        0.98951991      -0.34159524       0.44797421
C        0.85772647       0.93704363      -0.39472451
C       -1.09594896       1.06487781      -0.23837773
C       -1.51415664      -0.11086960       0.64253295
C       -0.37685247      -0.85191125      -0.02432341
O       -0.41518910      -0.00983090      -1.23074914
H        2.04386650      -1.37489453      -0.80095450
H        1.04653688      -0.14863983       1.51765243
H        1.02312778       1.86301942       0.15450798
H        1.57518916       0.97858080      -1.22003299
H       -1.84913160       1.57551912      -0.83895257
H       -1.43126187       0.04949308       1.71863161
H       -2.48054714      -0.54807863       0.38139154
H       -0.45029988      -1.91556828      -0.25167623
15
Frame=14 idx=011901 GeodesicLength=0.4167083714135567 rxn_smarts="[O:1]([C@@:2]1([H:9])[C:3]([H:10])([H:11])[C@:4]2([H:12])[C:5]([H:13])([H:14])[C@@:6]1([H:15])[O:7]2)[H:8]>>[O:1]([C@@:2]1([H:9])[C:3]([H:10])([H:11])[O:7][C@@:6]1([C:5]([C:4][H:12])([H:13])[H:14])[H:15])[H:8]"
O        2.07650506      -1.16751332       0.12630948
C        0.98981427      -0.34480944       0.44737344
C        0.84918251       0.93911844      -0.38909102
C       -1.09322945       1.05984158      -0.24964436
C       -1.51259538      -0.10721411       0.64294530
C       -0.37781518      -0.85533767      -0.02107271
O       -0.41174226      -0.02108915      -1.23225670
H        2.03775582      -1.36894477      -0.81298919
H        1.05249102      -0.15730557       1.51774033
H        1.01621372       1.85954936       0.17057100
H        1.57535694       0.99398538      -1.20602443
H       -1.84241500       1.56821890      -0.85688083
H       -1.42437540       0.06547235       1.71673840
H       -2.48067053      -0.54408661       0.38925491
H       -0.45447612      -1.91988536      -0.24297362
15
Frame=15 idx=011901 GeodesicLength=0.44681536872482275 rxn_smarts="[O:1]([C@@:2]1([H:9])[C:3]([H:10])([H:11])[C@:4]2([H:12])[C:5]([H:13])([H:14])[C@@:6]1([H:15])[O:7]2)[H:8]>>[O:1]([C@@:2]1([H:9])[C:3]([H:10])([H:11])[O:7][C@@:6]1([C:5]([C:4][H:12])([H:13])[H:14])[H:15])[H:8]"
O        2.07553450      -1.16781894       0.11555838
C        0.99012155      -0.34799073       0.44674373
C        0.84067765       0.94110777      -0.38352693
C       -1.09047888       1.05475669      -0.26078894
C       -1.51099712      -0.10354417       0.64333090
C       -0.37876625      -0.85871227      -0.01784348
O       -0.40827228      -0.03224405      -1.23367598
H        2.03161076      -1.36296973      -0.82490299
H        1.05847683      -0.16588535       1.51773035
H        1.00908620       1.85592674       0.18649878
H        1.57538307       1.00922589      -1.19185956
H       -1.83561495       1.56083872      -0.87465849
H       -1.41740101       0.08135732       1.71466033
H       -2.48074438      -0.53994805       0.39706502
H       -0.45861568      -1.92409985      -0.23433112
15
Frame=16 idx=011901 GeodesicLength=0.47696287191359643 rxn_smarts="[O:1]([C@@:2]1([H:9])[C:3]([H:10])([H:11])[C@:4]2([H:12])[C:5]([H:13])([H:14])[C@@:6]1([H:15])[O:7]2)[H:8]>>[O:1]([C@@:2]1([H:9])[C:3]([H:10])([H:11])[O:7][C@@:6]1([C:5]([C:4][H:12])([H:13])[H:14])[H:15])[H:8]"
O        2.07451019      -1.16805245       0.10491520
C        0.99043308      -0.35111872       0.44609182
C        0.83222252       0.94300847      -0.37807655
C       -1.08768404       1.04964183      -0.27175817
C       -1.50937014      -0.09988841       0.64368613
C       -0.37970016      -0.86203050      -0.01464799
O       -0.40481502      -0.04326622      -1.23500685
H        2.02544725      -1.35699917      -0.83662180
H        1.06446870      -0.17431933       1.51762454
H        1.00179985       1.85218261       0.20218881
H        1.57525892       1.02423772      -1.17760751
H       -1.82873043       1.55345660      -0.89217356
H       -1.41037692       0.09703982       1.71241180
H       -2.48076578      -0.53569057       0.40477392
H       -0.46269802      -1.92820167      -0.22579978
