9
Frame=0 idx=002054 GeodesicLength=0.0 rxn_smarts="[N:1]([C:2]([C:3]#[N:4])([C:5]#[N:6])[H:9])([H:7])[H:8]>>[N:1]([C@@:2]([N+:4]#[C-:3])([C:5]#[N:6])[H:9])([H:7])[H:8]"
N       -0.79881244      -0.64358306       0.72180816
C        0.09774780       0.24932345       0.22466433
C        1.22570304      -0.69814140      -1.08373940
N        1.94254400      -0.46377014      -0.17507708
C       -0.42554495       1.18543714      -0.75529018
N       -0.87903160       1.95951537      -1.46824551
H       -0.48090635      -1.19895027       1.49819452
H       -1.35441713      -1.15125199       0.05218642
H        0.67271763       0.76142094       0.98549872
9
Frame=1 idx=002054 GeodesicLength=0.08742341492498393 rxn_smarts="[N:1]([C:2]([C:3]#[N:4])([C:5]#[N:6])[H:9])([H:7])[H:8]>>[N:1]([C@@:2]([N+:4]#[C-:3])([C:5]#[N:6])[H:9])([H:7])[H:8]"
N       -0.78454050      -0.65787238       0.70738369
C        0.11338592       0.23695025       0.20479700
C        1.27307208      -0.61966192      -1.13322806
N        1.92435668      -0.55812554      -0.15408060
C       -0.44186120       1.18972059      -0.74495027
N       -0.90301852       1.96512006      -1.45162901
H       -0.52606882      -1.13049874       1.55610959
H       -1.32755952      -1.18442063       0.04307181
H        0.67223387       0.75878830       0.97252584
9
Frame=2 idx=002054 GeodesicLength=0.16995026213365144 rxn_smarts="[N:1]([C:2]([C:3]#[N:4])([C:5]#[N:6])[H:9])([H:7])[H:8]>>[N:1]([C@@:2]([N+:4]#[C-:3])([C:5]#[N:6])[H:9])([H:7])[H:8]"
N       -0.76851625      -0.67385150       0.69656246
C        0.12909996       0.22402126       0.18694500
C        1.32852218      -0.53619111      -1.16878558
N        1.89950192      -0.65111892      -0.14900459
C       -0.45836107       1.19069394      -0.73317077
N       -0.92602076       1.96642154      -1.43530675
H       -0.57765756      -1.05764227       1.60504344
H       -1.30130882      -1.21603089       0.03744171
H        0.67474040       0.75369795       0.96027509
9
Frame=3 idx=002054 GeodesicLength=0.24864221931185138 rxn_smarts="[N:1]([C:2]([C:3]#[N:4])([C:5]#[N:6])[H:9])([H:7])[H:8]>>[N:1]([C@@:2]([N+:4]#[C-:3])([C:5]#[N:6])[H:9])([H:7])[H:8]"
N       -0.75073826      -0.69142133       0.69022139
C        0.14482611       0.21036434       0.17151448
C        1.39006823      -0.44955361      -1.18973679
N        1.86950641      -0.73964391      -0.16121945
C       -0.47441035       1.18831240      -0.71995299
N       -0.94675038       1.96257051      -1.42063735
H       -0.63399450      -0.98264999       1.64389205
H       -1.27770805      -1.24461057       0.03626650
H        0.67920078       0.74663217       0.94965216
9
Frame=4 idx=002054 GeodesicLength=0.3240809026631561 rxn_smarts="[N:1]([C:2]([C:3]#[N:4])([C:5]#[N:6])[H:9])([H:7])[H:8]>>[N:1]([C@@:2]([N+:4]#[C-:3])([C:5]#[N:6])[H:9])([H:7])[H:8]"
N       -0.73194785      -0.70904738       0.68841633
C        0.16044268       0.19612646       0.15722830
C        1.45781886      -0.36468216      -1.19429078
N        1.83537102      -0.82293518      -0.18816530
C       -0.48830502       1.18106108      -0.71004832
N       -0.96818816       1.95699594      -1.40382002
H       -0.69066680      -0.90825309       1.67118994
H       -1.25824478      -1.26893666       0.04007215
H        0.68372005       0.73967099       0.93941771
9
Frame=5 idx=002054 GeodesicLength=0.3978583216016484 rxn_smarts="[N:1]([C:2]([C:3]#[N:4])([C:5]#[N:6])[H:9])([H:7])[H:8]>>[N:1]([C@@:2]([N+:4]#[C-:3])([C:5]#[N:6])[H:9])([H:7])[H:8]"
N       -0.71176022      -0.72673452       0.69091742
C        0.17636627       0.18131433       0.14422005
C        1.53077549      -0.28296555      -1.18262283
N        1.79749086      -0.90015444      -0.23080330
C       -0.49928046       1.16936651      -0.70372584
N       -0.99099133       1.94945161      -1.38455639
H       -0.74842485      -0.83386798       1.68797782
H       -1.24216249      -1.28950505       0.04859924
H        0.68798674       0.73309508       0.92999383
9
Frame=6 idx=002054 GeodesicLength=0.47040771268317366 rxn_smarts="[N:1]([C:2]([C:3]#[N:4])([C:5]#[N:6])[H:9])([H:7])[H:8]>>[N:1]([C@@:2]([N+:4]#[C-:3])([C:5]#[N:6])[H:9])([H:7])[H:8]"
N       -0.69137438      -0.74333489       0.69806094
C        0.19180954       0.16701712       0.13363746
C        1.60674093      -0.20508575      -1.15367596
N        1.75378036      -0.96989269      -0.29058883
C       -0.50777671       1.15502730      -0.69984810
N       -1.01203633       1.93837657      -1.36764669
H       -0.80203671      -0.76436235       1.69526274
H       -1.22981241      -1.30559406       0.06191812
H        0.69070571       0.72784874       0.92288031
9
Frame=7 idx=002054 GeodesicLength=0.5424289988124396 rxn_smarts="[N:1]([C:2]([C:3]#[N:4])([C:5]#[N:6])[H:9])([H:7])[H:8]>>[N:1]([C@@:2]([N+:4]#[C-:3])([C:5]#[N:6])[H:9])([H:7])[H:8]"
N       -0.67073771      -0.75864662       0.70932491
C        0.20685293       0.15398322       0.12619388
C        1.68404129      -0.13437493      -1.10683698
N        1.70326538      -1.02931771      -0.36930907
C       -0.51342476       1.13911891      -0.69799636
N       -1.03057227       1.92328458      -1.35496508
H       -0.85050740      -0.70130285       1.69524253
H       -1.22020758      -1.31751669       0.07931003
H        0.69129012       0.72477210       0.91903614
9
Frame=8 idx=002054 GeodesicLength=0.6145973460062719 rxn_smarts="[N:1]([C:2]([C:3]#[N:4])([C:5]#[N:6])[H:9])([H:7])[H:8]>>[N:1]([C@@:2]([N+:4]#[C-:3])([C:5]#[N:6])[H:9])([H:7])[H:8]"
N       -0.64980392      -0.77244615       0.72348765
C        0.22153141       0.14305931       0.12186490
C        1.76070837      -0.07765523      -1.04248983
N        1.64608734      -1.07431323      -0.46546266
C       -0.51570712       1.12221714      -0.69926583
N       -1.04750673       1.90556532      -1.34550047
H       -0.89245817      -0.64565118       1.68969421
H       -1.21176704      -1.32610184       0.09934707
H        0.68891587       0.72532586       0.91832496
9
Frame=9 idx=002054 GeodesicLength=0.6885092502717441 rxn_smarts="[N:1]([C:2]([C:3]#[N:4])([C:5]#[N:6])[H:9])([H:7])[H:8]>>[N:1]([C@@:2]([N+:4]#[C-:3])([C:5]#[N:6])[H:9])([H:7])[H:8]"
N       -0.62812555      -0.78483071       0.73923465
C        0.23608272       0.13491570       0.12019008
C        1.83454174      -0.04229402      -0.96329117
N        1.58410400      -1.10086997      -0.57480785
C       -0.51437070       1.10525488      -0.70405500
N       -1.06509309       1.88656551      -1.33678209
H       -0.92873686      -0.59651286       1.67939843
H       -1.20220100      -1.33274228       0.12029705
H        0.68379876       0.73051376       0.91981590
9
Frame=10 idx=002054 GeodesicLength=0.7639969856962221 rxn_smarts="[N:1]([C:2]([C:3]#[N:4])([C:5]#[N:6])[H:9])([H:7])[H:8]>>[N:1]([C@@:2]([N+:4]#[C-:3])([C:5]#[N:6])[H:9])([H:7])[H:8]"
N       -0.60511444      -0.79655737       0.75633409
C        0.24994241       0.12976357       0.12138955
C        1.89939084      -0.03166763      -0.87663921
N        1.52097763      -1.10478378      -0.69067005
C       -0.51191101       1.09041982      -0.70806372
N       -1.08023672       1.86646903      -1.33166914
H       -0.96122490      -0.55377223       1.66484507
H       -1.18933749      -1.33908287       0.14126749
H        0.67751367       0.73921147       0.92320593
9
Frame=11 idx=002054 GeodesicLength=0.8414536945077875 rxn_smarts="[N:1]([C:2]([C:3]#[N:4])([C:5]#[N:6])[H:9])([H:7])[H:8]>>[N:1]([C@@:2]([N+:4]#[C-:3])([C:5]#[N:6])[H:9])([H:7])[H:8]"
N       -0.58178005      -0.80693176       0.77338483
C        0.26268291       0.12780509       0.12374627
C        1.95371414      -0.04719987      -0.78836577
N        1.46102185      -1.08744819      -0.80317074
C       -0.50936424       1.07915684      -0.71108117
N       -1.09562078       1.84706944      -1.32816041
H       -0.98962884      -0.51721588       1.64662983
H       -1.17258802      -1.34613839       0.16061169
H        0.67156303       0.75090272       0.92640547
9
Frame=12 idx=002054 GeodesicLength=0.9202648232862801 rxn_smarts="[N:1]([C:2]([C:3]#[N:4])([C:5]#[N:6])[H:9])([H:7])[H:8]>>[N:1]([C@@:2]([N+:4]#[C-:3])([C:5]#[N:6])[H:9])([H:7])[H:8]"
N       -0.55885103      -0.81526792       0.78931774
C        0.27418455       0.12884202       0.12574541
C        1.99676383      -0.08664135      -0.70300673
N        1.40797536      -1.05301604      -0.90461216
C       -0.50745798       1.07191353      -0.71339580
N       -1.11389329       1.82942916      -1.32384451
H       -1.01458278      -0.48556476       1.62488640
H       -1.15168352      -1.35421309       0.17716010
H        0.66754487       0.76451844       0.92774954
9
Frame=13 idx=002054 GeodesicLength=0.9991962072810703 rxn_smarts="[N:1]([C:2]([C:3]#[N:4])([C:5]#[N:6])[H:9])([H:7])[H:8]>>[N:1]([C@@:2]([N+:4]#[C-:3])([C:5]#[N:6])[H:9])([H:7])[H:8]"
N       -0.53670843      -0.82155135       0.80420177
C        0.28428481       0.13230870       0.12692769
C        2.02766446      -0.14470497      -0.62371108
N        1.36397574      -1.00565173      -0.99223879
C       -0.50739741       1.06827415      -0.71443393
N       -1.13407925       1.81384900      -1.31913967
H       -1.03700078      -0.45808635       1.60034956
H       -1.12712779      -1.36341804       0.19120780
H        0.66638866       0.77898060       0.92683664
9
Frame=14 idx=002054 GeodesicLength=1.0774227304736677 rxn_smarts="[N:1]([C:2]([C:3]#[N:4])([C:5]#[N:6])[H:9])([H:7])[H:8]>>[N:1]([C@@:2]([N+:4]#[C-:3])([C:5]#[N:6])[H:9])([H:7])[H:8]"
N       -0.51550940      -0.82583687       0.81864953
C        0.29307327       0.13734625       0.12687692
C        2.04662680      -0.21627476      -0.55204102
N        1.33065220      -0.94961750      -1.06568879
C       -0.50972277       1.06651558      -0.71510780
N       -1.15563858       1.80147274      -1.31261762
H       -1.05861720      -0.43329173       1.57296136
H       -1.09923193      -1.37419533       0.20380110
H        0.66836761       0.79388161       0.92316631
9
Frame=15 idx=002054 GeodesicLength=1.1550000679716605 rxn_smarts="[N:1]([C:2]([C:3]#[N:4])([C:5]#[N:6])[H:9])([H:7])[H:8]>>[N:1]([C@@:2]([N+:4]#[C-:3])([C:5]#[N:6])[H:9])([H:7])[H:8]"
N       -0.49529895      -0.82801541       0.83311666
C        0.30061470       0.14311962       0.12504437
C        2.05400546      -0.29745343      -0.48771539
N        1.30891038      -0.88835571      -1.12543865
C       -0.51421849       1.06456279      -0.71747003
N       -1.17864456       1.79367222      -1.30174703
H       -1.08017422      -0.41012745       1.54235038
H       -1.06818290      -1.38657013       0.21611658
H        0.67298859       0.80916750       0.91574312
9
Frame=16 idx=002054 GeodesicLength=1.2319732476469947 rxn_smarts="[N:1]([C:2]([C:3]#[N:4])([C:5]#[N:6])[H:9])([H:7])[H:8]>>[N:1]([C@@:2]([N+:4]#[C-:3])([C:5]#[N:6])[H:9])([H:7])[H:8]"
N       -0.47650010      -0.82830103       0.84795915
C        0.30719639       0.14927477       0.12232017
C        2.05022377      -0.38438340      -0.43180517
N        1.29793285      -0.82327320      -1.17306249
C       -0.52033757       1.06255623      -0.72036604
N       -1.20202901       1.78840494      -1.28869051
H       -1.10173651      -0.38887832       1.50932657
H       -1.03522780      -1.39963284       0.22847727
H        0.68047797       0.82423284       0.90584104
