15
Frame=0 idx=005969 GeodesicLength=0.0 rxn_smarts="[C:1]([C:2]([C:3](=[O:4])[N:5]([C:6]([H:13])([H:14])[H:15])[H:12])([H:10])[H:11])([H:7])([H:8])[H:9]>>[C:1]([O:4][C:3](=[C:2]([H:10])[H:11])[N:5]([C:6]([H:13])([H:14])[H:15])[H:12])([H:7])([H:8])[H:9]"
C        2.13857213      -0.77920660       0.57577419
C        1.09579683       1.03894330      -0.47816121
C       -0.01878849       0.30621368      -0.01436903
O        0.18756833      -0.59179562       0.85841885
N       -1.27126978       0.47912657      -0.47771706
C       -2.38331745      -0.36412927      -0.10604875
H        2.06607512      -1.45782922      -0.26041493
H        2.97001638      -0.09388182       0.50853474
H        2.05403162      -1.24326802       1.54973490
H        1.58607349       1.60346310       0.30696761
H        1.03397495       1.56632323      -1.42715135
H       -1.45594220       1.31443921      -1.00052602
H       -3.09509708      -0.41921651      -0.93076658
H       -2.00772911      -1.36270640       0.11137385
H       -2.89996468       0.00352442       0.78435086
15
Frame=1 idx=005969 GeodesicLength=0.04886658733091988 rxn_smarts="[C:1]([C:2]([C:3](=[O:4])[N:5]([C:6]([H:13])([H:14])[H:15])[H:12])([H:10])[H:11])([H:7])([H:8])[H:9]>>[C:1]([O:4][C:3](=[C:2]([H:10])[H:11])[N:5]([C:6]([H:13])([H:14])[H:15])[H:12])([H:7])([H:8])[H:9]"
C        2.13432504      -0.77372185       0.55443938
C        1.09534868       1.03928528      -0.45424803
C       -0.02339661       0.31424454       0.01384913
O        0.18681480      -0.60790187       0.86078436
N       -1.27323151       0.48753602      -0.45828599
C       -2.38651569      -0.36431336      -0.11301679
H        2.05144820      -1.48813897      -0.25122396
H        2.98569866      -0.11844953       0.43875393
H        2.07988446      -1.19159962       1.55167512
H        1.59340678       1.60217700       0.32716310
H        1.02760105       1.56782663      -1.40207261
H       -1.44931997       1.31733281      -0.99272406
H       -3.06252962      -0.45154970      -0.96507505
H       -2.01450413      -1.35392629       0.14617860
H       -2.94503016       0.02119890       0.74380286
15
Frame=2 idx=005969 GeodesicLength=0.09755922830470184 rxn_smarts="[C:1]([C:2]([C:3](=[O:4])[N:5]([C:6]([H:13])([H:14])[H:15])[H:12])([H:10])[H:11])([H:7])([H:8])[H:9]>>[C:1]([O:4][C:3](=[C:2]([H:10])[H:11])[N:5]([C:6]([H:13])([H:14])[H:15])[H:12])([H:7])([H:8])[H:9]"
C        2.12973454      -0.76860823       0.53269615
C        1.09473813       1.03959147      -0.43033347
C       -0.02775383       0.32154221       0.04192768
O        0.18626062      -0.62425957       0.86218144
N       -1.27513854       0.49603496      -0.43822566
C       -2.38916111      -0.36418591      -0.11934662
H        2.03873847      -1.51714232      -0.24133894
H        2.99672677      -0.14262746       0.37092331
H        2.10500547      -1.14079095       1.54951242
H        1.60073978       1.60043713       0.34742437
H        1.02105187       1.56956561      -1.37678898
H       -1.44214160       1.31954446      -0.98520241
H       -3.02657710      -0.48516940      -0.99707153
H       -2.02296003      -1.34323149       0.18353543
H       -2.98926343       0.03929950       0.70010682
15
Frame=3 idx=005969 GeodesicLength=0.14619216797913193 rxn_smarts="[C:1]([C:2]([C:3](=[O:4])[N:5]([C:6]([H:13])([H:14])[H:15])[H:12])([H:10])[H:11])([H:7])([H:8])[H:9]>>[C:1]([O:4][C:3](=[C:2]([H:10])[H:11])[N:5]([C:6]([H:13])([H:14])[H:15])[H:12])([H:7])([H:8])[H:9]"
C        2.12482076      -0.76384153       0.51058543
C        1.09405839       1.03980520      -0.40650554
C       -0.03187074       0.32804575       0.06973093
O        0.18579488      -0.64084732       0.86254869
N       -1.27712487       0.50479056      -0.41740703
C       -2.39140439      -0.36375999      -0.12507444
H        2.02811482      -1.54488692      -0.23085505
H        3.00368314      -0.16618317       0.30500788
H        2.12925704      -1.09104282       1.54356131
H        1.60810096       1.59819464       0.36772650
H        1.01440548       1.57156492      -1.35136569
H       -1.43446075       1.32115943      -0.97784341
H       -2.98735763      -0.52009775      -1.02643636
H       -2.03333497      -1.33035942       0.22323542
H       -3.03268212       0.05745841       0.65309135
15
Frame=4 idx=005969 GeodesicLength=0.1949191829831914 rxn_smarts="[C:1]([C:2]([C:3](=[O:4])[N:5]([C:6]([H:13])([H:14])[H:15])[H:12])([H:10])[H:11])([H:7])([H:8])[H:9]>>[C:1]([O:4][C:3](=[C:2]([H:10])[H:11])[N:5]([C:6]([H:13])([H:14])[H:15])[H:12])([H:7])([H:8])[H:9]"
C        2.11919797      -0.75947536       0.48827895
C        1.09327524       1.03962150      -0.38327108
C       -0.03575834       0.33397726       0.09733655
O        0.18524178      -0.65719027       0.86223429
N       -1.27930666       0.51438595      -0.39518844
C       -2.39291264      -0.36324312      -0.13050602
H        2.01894826      -1.57193094      -0.21912366
H        3.00666173      -0.18931480       0.24074321
H        2.15237104      -1.04176294       1.53439084
H        1.61570063       1.59546383       0.38713695
H        1.00736818       1.57319654      -1.32639697
H       -1.42663990       1.32337131      -0.96896188
H       -2.94437581      -0.55575785      -1.05328523
H       -2.04503722      -1.31554937       0.26382284
H       -3.07473427       0.07420826       0.60278964
15
Frame=5 idx=005969 GeodesicLength=0.24366483842166498 rxn_smarts="[C:1]([C:2]([C:3](=[O:4])[N:5]([C:6]([H:13])([H:14])[H:15])[H:12])([H:10])[H:11])([H:7])([H:8])[H:9]>>[C:1]([O:4][C:3](=[C:2]([H:10])[H:11])[N:5]([C:6]([H:13])([H:14])[H:15])[H:12])([H:7])([H:8])[H:9]"
C        2.11245589      -0.75562255       0.46578478
C        1.09240210       1.03924715      -0.36069633
C       -0.03956320       0.34032182       0.12564395
O        0.18439909      -0.67199055       0.86270829
N       -1.28188858       0.52535091      -0.37095420
C       -2.39336521      -0.36294229      -0.13593582
H        2.00987608      -1.59831796      -0.20608605
H        3.00578845      -0.21261517       0.17738046
H        2.17451310      -0.99365242       1.52206896
H        1.62431418       1.59242101       0.40511057
H        0.99978045       1.57428258      -1.30221521
H       -1.41899833       1.32645962      -0.95823935
H       -2.89681927      -0.59234020      -1.07788295
H       -2.05739285      -1.29886617       0.30466970
H       -3.11550190       0.08826423       0.54864319
15
Frame=6 idx=005969 GeodesicLength=0.2923233892664966 rxn_smarts="[C:1]([C:2]([C:3](=[O:4])[N:5]([C:6]([H:13])([H:14])[H:15])[H:12])([H:10])[H:11])([H:7])([H:8])[H:9]>>[C:1]([O:4][C:3](=[C:2]([H:10])[H:11])[N:5]([C:6]([H:13])([H:14])[H:15])[H:12])([H:7])([H:8])[H:9]"
C        2.10590069      -0.75174184       0.44319158
C        1.09143294       1.03867322      -0.33815119
C       -0.04307008       0.34430646       0.15166331
O        0.18350880      -0.68911466       0.85943868
N       -1.28441026       0.53525937      -0.34814478
C       -2.39408834      -0.36175466      -0.14009024
H        2.00546301      -1.62232460      -0.19365728
H        3.00241568      -0.23318549       0.11833440
H        2.19481760      -0.94825476       1.50661946
H        1.63123517       1.58877246       0.42430083
H        0.99263528       1.57618262      -1.27748896
H       -1.41063353       1.32779565      -0.94948456
H       -2.84852601      -0.62968674      -1.09698631
H       -2.07329759      -1.27902611       0.34814565
H       -3.15338337       0.10409908       0.49230942
15
Frame=7 idx=005969 GeodesicLength=0.3410668672605466 rxn_smarts="[C:1]([C:2]([C:3](=[O:4])[N:5]([C:6]([H:13])([H:14])[H:15])[H:12])([H:10])[H:11])([H:7])([H:8])[H:9]>>[C:1]([O:4][C:3](=[C:2]([H:10])[H:11])[N:5]([C:6]([H:13])([H:14])[H:15])[H:12])([H:7])([H:8])[H:9]"
C        2.09777182      -0.74837542       0.42093996
C        1.09036000       1.03759021      -0.31699815
C       -0.04657414       0.34920096       0.17858467
O        0.18195470      -0.70382128       0.85787036
N       -1.28746528       0.54697105      -0.32295075
C       -2.39334432      -0.36109529      -0.14475994
H        2.00025745      -1.64609571      -0.17887639
H        2.99548544      -0.25440550       0.05985256
H        2.21392584      -0.90353873       1.48914196
H        1.63950597       1.58495430       0.44070350
H        0.98468487       1.57661594      -1.25458369
H       -1.40309344       1.33144752      -0.93700217
H       -2.79622829      -0.66601461      -1.11390186
H       -2.08872173      -1.25837819       0.38858120
H       -3.18851888       0.11494476       0.43339873
15
Frame=8 idx=005969 GeodesicLength=0.39003359088028833 rxn_smarts="[C:1]([C:2]([C:3](=[O:4])[N:5]([C:6]([H:13])([H:14])[H:15])[H:12])([H:10])[H:11])([H:7])([H:8])[H:9]>>[C:1]([O:4][C:3](=[C:2]([H:10])[H:11])[N:5]([C:6]([H:13])([H:14])[H:15])[H:12])([H:7])([H:8])[H:9]"
C        2.08914151      -0.74516854       0.39844588
C        1.08919380       1.03658477      -0.29576105
C       -0.04997779       0.35306917       0.20443157
O        0.18003736      -0.71910457       0.85436111
N       -1.29043905       0.55796609      -0.29890038
C       -2.39237416      -0.36008188      -0.14866288
H        1.99744305      -1.66792952      -0.16450879
H        2.98620810      -0.27402085       0.00393074
H        2.23142293      -0.86147210       1.46900737
H        1.64711391       1.58063670       0.45786367
H        0.97694175       1.57794486      -1.23108762
H       -1.39517973       1.33392200      -0.92578769
H       -2.74250546      -0.70358417      -1.12563565
H       -2.10657199      -1.23477021       0.43050206
H       -3.22045423       0.12600826       0.37180166
15
Frame=9 idx=005969 GeodesicLength=0.43945710962816625 rxn_smarts="[C:1]([C:2]([C:3](=[O:4])[N:5]([C:6]([H:13])([H:14])[H:15])[H:12])([H:10])[H:11])([H:7])([H:8])[H:9]>>[C:1]([O:4][C:3](=[C:2]([H:10])[H:11])[N:5]([C:6]([H:13])([H:14])[H:15])[H:12])([H:7])([H:8])[H:9]"
C        2.07906021      -0.74237366       0.37596242
C        1.08790048       1.03552009      -0.27508723
C       -0.05339169       0.35741006       0.23068909
O        0.17743611      -0.73270181       0.85181735
N       -1.29350937       0.56942107      -0.27436026
C       -2.39025808      -0.35943653      -0.15273960
H        1.99429197      -1.68883074      -0.14897532
H        2.97377468      -0.29374821      -0.05139039
H        2.24779102      -0.82096742       1.44672295
H        1.65540628       1.57606408       0.47384934
H        0.96880414       1.57912500      -1.20810466
H       -1.38759986       1.33732538      -0.91295919
H       -2.68591294      -0.74115912      -1.13379409
H       -2.12497156      -1.20969141       0.47080127
H       -3.24882137       0.13404321       0.30756833
15
Frame=10 idx=005969 GeodesicLength=0.48921130950542024 rxn_smarts="[C:1]([C:2]([C:3](=[O:4])[N:5]([C:6]([H:13])([H:14])[H:15])[H:12])([H:10])[H:11])([H:7])([H:8])[H:9]>>[C:1]([O:4][C:3](=[C:2]([H:10])[H:11])[N:5]([C:6]([H:13])([H:14])[H:15])[H:12])([H:7])([H:8])[H:9]"
C        2.06810413      -0.73972796       0.35360173
C        1.08654423       1.03445346      -0.25462722
C       -0.05679504       0.36136049       0.25633928
O        0.17425369      -0.74582084       0.84866085
N       -1.29648875       0.58038373      -0.25085430
C       -2.38761181      -0.35876831      -0.15649421
H        1.99233603      -1.70795871      -0.13328753
H        2.95902361      -0.31248835      -0.10484807
H        2.26272817      -0.78275961       1.42260748
H        1.66351574       1.57111733       0.48979658
H        0.96081981       1.58066942      -1.18507994
H       -1.37993529       1.34026789      -0.90063950
H       -2.62883736      -0.77861213      -1.13709765
H       -2.14461951      -1.18273016       0.50994199
H       -3.27303762       0.14061376       0.24198052
15
Frame=11 idx=005969 GeodesicLength=0.5394901189330299 rxn_smarts="[C:1]([C:2]([C:3](=[O:4])[N:5]([C:6]([H:13])([H:14])[H:15])[H:12])([H:10])[H:11])([H:7])([H:8])[H:9]>>[C:1]([O:4][C:3](=[C:2]([H:10])[H:11])[N:5]([C:6]([H:13])([H:14])[H:15])[H:12])([H:7])([H:8])[H:9]"
C        2.05532988      -0.73754132       0.33190740
C        1.08504199       1.03301072      -0.23546642
C       -0.06019873       0.36642548       0.28294722
O        0.17033276      -0.75600764       0.84855979
N       -1.29967977       0.59211356      -0.22619801
C       -2.38336508      -0.35884069      -0.16117069
H        1.98883992      -1.72646826      -0.11497569
H        2.94072944      -0.33239743      -0.15840509
H        2.27710553      -0.74521954       1.39711010
H        1.67285943       1.56613878       0.50293658
H        0.95208048       1.58087437      -1.16377931
H       -1.37333481       1.34584774      -0.88451893
H       -2.56960945      -0.81354166      -1.13846213
H       -2.16333815      -1.15677192       0.54386603
H       -3.29279342       0.14237782       0.17564914
15
Frame=12 idx=005969 GeodesicLength=0.5904425208744124 rxn_smarts="[C:1]([C:2]([C:3](=[O:4])[N:5]([C:6]([H:13])([H:14])[H:15])[H:12])([H:10])[H:11])([H:7])([H:8])[H:9]>>[C:1]([O:4][C:3](=[C:2]([H:10])[H:11])[N:5]([C:6]([H:13])([H:14])[H:15])[H:12])([H:7])([H:8])[H:9]"
C        2.04140363      -0.73554330       0.31018856
C        1.08345846       1.03182851      -0.21612708
C       -0.06363434       0.37148373       0.30938290
O        0.16586580      -0.76522226       0.84893427
N       -1.30265562       0.60318196      -0.20278080
C       -2.37838632      -0.35907487      -0.16569898
H        1.98561353      -1.74311338      -0.09686267
H        2.91973685      -0.35177460      -0.21110165
H        2.29055591      -0.71000707       1.36972002
H        1.68222621       1.56079056       0.51639000
H        0.94350768       1.58191516      -1.14192503
H       -1.36650684       1.35069435      -0.86939556
H       -2.50983142      -0.84874956      -1.13518644
H       -2.18311762      -1.12918512       0.57667881
H       -3.30823591       0.14277589       0.10778365
15
Frame=13 idx=005969 GeodesicLength=0.6419135635928543 rxn_smarts="[C:1]([C:2]([C:3](=[O:4])[N:5]([C:6]([H:13])([H:14])[H:15])[H:12])([H:10])[H:11])([H:7])([H:8])[H:9]>>[C:1]([O:4][C:3](=[C:2]([H:10])[H:11])[N:5]([C:6]([H:13])([H:14])[H:15])[H:12])([H:7])([H:8])[H:9]"
C        2.02617082      -0.73383063       0.28930358
C        1.08175534       1.03028387      -0.19784314
C       -0.06701638       0.37698376       0.33609821
O        0.16086238      -0.77260428       0.85142930
N       -1.30570892       0.61434755      -0.17906499
C       -2.37226087      -0.35975817      -0.17085544
H        1.98210306      -1.75849015      -0.07696559
H        2.89576532      -0.37165964      -0.26311608
H        2.30343544      -0.67580136       1.34124009
H        1.69216280       1.55537626       0.52776258
H        0.93449852       1.58192712      -1.12141272
H       -1.36043959       1.35722088      -0.85189759
H       -2.44973329      -0.88122780      -1.12976910
H       -2.20247630      -1.10273362       0.60484324
H       -3.31911833       0.13996620       0.04024766
15
Frame=14 idx=005969 GeodesicLength=0.6941831789187184 rxn_smarts="[C:1]([C:2]([C:3](=[O:4])[N:5]([C:6]([H:13])([H:14])[H:15])[H:12])([H:10])[H:11])([H:7])([H:8])[H:9]>>[C:1]([O:4][C:3](=[C:2]([H:10])[H:11])[N:5]([C:6]([H:13])([H:14])[H:15])[H:12])([H:7])([H:8])[H:9]"
C        2.00938461      -0.73240004       0.26906546
C        1.07987040       1.02854183      -0.18030603
C       -0.07033777       0.38312037       0.36334768
O        0.15544287      -0.77791036       0.85658529
N       -1.30875377       0.62542425      -0.15513712
C       -2.36477566      -0.36092357      -0.17665619
H        1.97771755      -1.77237529      -0.05569653
H        2.86833650      -0.39226357      -0.31488942
H        2.31592502      -0.64276874       1.31134097
H        1.70267788       1.54979562       0.53739999
H        0.92497979       1.58128988      -1.10179816
H       -1.35496707       1.36501247      -0.83246694
H       -2.38875188      -0.91155485      -1.12222995
H       -2.22142012      -1.07742346       0.62889186
H       -3.32532836       0.13443547      -0.02745089
15
Frame=15 idx=005969 GeodesicLength=0.7470452880202894 rxn_smarts="[C:1]([C:2]([C:3](=[O:4])[N:5]([C:6]([H:13])([H:14])[H:15])[H:12])([H:10])[H:11])([H:7])([H:8])[H:9]>>[C:1]([O:4][C:3](=[C:2]([H:10])[H:11])[N:5]([C:6]([H:13])([H:14])[H:15])[H:12])([H:7])([H:8])[H:9]"
C        1.99168475      -0.73106334       0.24962513
C        1.07788523       1.02656262      -0.16333960
C       -0.07356765       0.38914362       0.39029875
O        0.14970377      -0.78236341       0.86275312
N       -1.31168123       0.63599623      -0.13178906
C       -2.35649134      -0.36224411      -0.18265549
H        1.97391178      -1.78428752      -0.03412485
H        2.83840981      -0.41263154      -0.36525164
H        2.32761649      -0.61124892       1.28049024
H        1.71313574       1.54403327       0.54606880
H        0.91538359       1.58018244      -1.08280634
H       -1.34972596       1.37304163      -0.81260084
H       -2.32871017      -0.93992378      -1.11209161
H       -2.24043197      -1.05263072       0.64979993
H       -3.32712283       0.12743353      -0.09437652
15
Frame=16 idx=005969 GeodesicLength=0.8002581267456254 rxn_smarts="[C:1]([C:2]([C:3](=[O:4])[N:5]([C:6]([H:13])([H:14])[H:15])[H:12])([H:10])[H:11])([H:7])([H:8])[H:9]>>[C:1]([O:4][C:3](=[C:2]([H:10])[H:11])[N:5]([C:6]([H:13])([H:14])[H:15])[H:12])([H:7])([H:8])[H:9]"
C        1.97337042      -0.72982233       0.23139025
C        1.07577863       1.02405676      -0.14746954
C       -0.07664119       0.39492735       0.41686181
O        0.14376472      -0.78617126       0.86992081
N       -1.31465071       0.64618606      -0.10853252
C       -2.34752604      -0.36363362      -0.18900226
H        1.97109769      -1.79432665      -0.01173607
H        2.80645833      -0.43290859      -0.41371772
H        2.33854851      -0.58081511       1.24918807
H        1.72346527       1.53823828       0.55294654
H        0.90548828       1.57786457      -1.06523236
H       -1.34508409       1.38198922      -0.79129632
H       -2.27013781      -0.96525442      -1.10051875
H       -2.25910545      -1.02953599       0.66665925
H       -3.32482657       0.11920571      -0.15946120
