13
Frame=0 idx=003666 GeodesicLength=0.0 rxn_smarts="[C:1]([C:2]1([O:3][H:9])[C:4]([H:10])([H:11])[C:5]1([H:12])[H:13])([H:6])([H:7])[H:8]>>[C:1]([C:5]([C:4]([C:2][O:3][H:9])([H:10])[H:11])([H:12])[H:13])([H:6])([H:7])[H:8]"
C       -1.08057348      -0.17343014       0.78887481
C       -0.10897887      -0.59842936      -0.77292032
O       -0.48358086       0.29983382      -1.74263308
C        1.34341880      -0.34662144      -0.45723770
C        0.72199027       0.50655204       0.55407446
H       -0.99322894      -1.07219506       1.39258964
H       -2.00906684      -0.24156739       0.22063441
H       -1.23182035       0.69104144       1.45139174
H       -1.40229827       0.12235159      -1.95984812
H        1.87951191      -1.21793816      -0.09636253
H        1.85894401       0.16924836      -1.26006203
H        0.93881450       0.31884814       1.59682779
H        0.56686812       1.54230619       0.28467098
13
Frame=1 idx=003666 GeodesicLength=0.055616575353737416 rxn_smarts="[C:1]([C:2]1([O:3][H:9])[C:4]([H:10])([H:11])[C:5]1([H:12])[H:13])([H:6])([H:7])[H:8]>>[C:1]([C:5]([C:4]([C:2][O:3][H:9])([H:10])[H:11])([H:12])[H:13])([H:6])([H:7])[H:8]"
C       -1.07810192      -0.17991673       0.79827000
C       -0.11412022      -0.57872440      -0.78162480
O       -0.47399602       0.30148410      -1.76966162
C        1.33705271      -0.34963652      -0.45528474
C        0.71691233       0.51352298       0.55253323
H       -0.97134581      -1.07442005       1.40594861
H       -2.00924890      -0.27151976       0.23744343
H       -1.25084144       0.68303541       1.45703069
H       -1.39866945       0.14411833      -1.97692033
H        1.85043057      -1.23280023      -0.08926290
H        1.86836127       0.15821725      -1.25310009
H        0.95063470       0.33603726       1.59372525
H        0.57293216       1.55060237       0.28090328
13
Frame=2 idx=003666 GeodesicLength=0.11122285635834883 rxn_smarts="[C:1]([C:2]1([O:3][H:9])[C:4]([H:10])([H:11])[C:5]1([H:12])[H:13])([H:6])([H:7])[H:8]>>[C:1]([C:5]([C:4]([C:2][O:3][H:9])([H:10])[H:11])([H:12])[H:13])([H:6])([H:7])[H:8]"
C       -1.07547172      -0.18656203       0.80792558
C       -0.11963559      -0.55839249      -0.79013929
O       -0.46372276       0.30211042      -1.79747993
C        1.33008993      -0.35276780      -0.45321642
C        0.71166052       0.52080007       0.55096967
H       -0.94902688      -1.07624286       1.41966384
H       -2.00858984      -0.30268509       0.25468884
H       -1.27023683       0.67427774       1.46282195
H       -1.39430376       0.16761220      -1.99418232
H        1.82028819      -1.24736243      -0.08227340
H        1.87737908       0.14652294      -1.24580454
H        0.96252072       0.35364555       1.59019739
H        0.57904894       1.55904377       0.27682864
13
Frame=3 idx=003666 GeodesicLength=0.16680965873699335 rxn_smarts="[C:1]([C:2]1([O:3][H:9])[C:4]([H:10])([H:11])[C:5]1([H:12])[H:13])([H:6])([H:7])[H:8]>>[C:1]([C:5]([C:4]([C:2][O:3][H:9])([H:10])[H:11])([H:12])[H:13])([H:6])([H:7])[H:8]"
C       -1.07268273      -0.19335968       0.81785575
C       -0.12554827      -0.53741377      -0.79844214
O       -0.45279577       0.30149103      -1.82607001
C        1.32248422      -0.35599299      -0.45104460
C        0.70622214       0.52838678       0.54939536
H       -0.92628687      -1.07761483       1.43377203
H       -2.00699452      -0.33507626       0.27236987
H       -1.29001905       0.66473945       1.46875986
H       -1.38905074       0.19298174      -2.01165601
H        1.78907758      -1.26157805      -0.07543716
H        1.88591190       0.13418170      -1.23818489
H        0.97446784       0.37162960       1.58622908
H        0.58521429       1.56762528       0.27245286
13
Frame=4 idx=003666 GeodesicLength=0.2223671850895335 rxn_smarts="[C:1]([C:2]1([O:3][H:9])[C:4]([H:10])([H:11])[C:5]1([H:12])[H:13])([H:6])([H:7])[H:8]>>[C:1]([C:5]([C:4]([C:2][O:3][H:9])([H:10])[H:11])([H:12])[H:13])([H:6])([H:7])[H:8]"
C       -1.06973649      -0.20029885       0.82807663
C       -0.13188433      -0.51576526      -0.80650986
O       -0.44128408       0.29938404      -1.85538762
C        1.31418758      -0.35928335      -0.44878573
C        0.70058566       0.53628355       0.54782742
H       -0.90314591      -1.07848265       1.44831067
H       -2.00436240      -0.36869161       0.29048364
H       -1.31020036       0.65439228       1.47484027
H       -1.38272075       0.22036234      -2.02939041
H        1.75679586      -1.27539859      -0.06880925
H        1.89386241       0.12122393      -1.23025970
H        0.98647539       0.38993391       1.58180915
H        0.59142743       1.57634026       0.26779478
13
Frame=5 idx=003666 GeodesicLength=0.27788305167784366 rxn_smarts="[C:1]([C:2]1([O:3][H:9])[C:4]([H:10])([H:11])[C:5]1([H:12])[H:13])([H:6])([H:7])[H:8]>>[C:1]([C:5]([C:4]([C:2][O:3][H:9])([H:10])[H:11])([H:12])[H:13])([H:6])([H:7])[H:8]"
C       -1.06663572      -0.20736263       0.83860641
C       -0.13867327      -0.49341709      -0.81431695
O       -0.42929977       0.29553848      -1.88535146
C        1.30514933      -0.36260261      -0.44646151
C        0.69474193       0.54448649       0.54629058
H       -0.87962942      -1.07878829       1.46331657
H       -2.00058731      -0.40351024       0.30902429
H       -1.33079076       0.64320960       1.48106137
H       -1.37507972       0.24985543      -2.04747617
H        1.72344274      -1.28877401      -0.06245892
H        1.90111922       0.10769765      -1.22205757
H        0.99854817       0.40848694       1.57693147
H        0.59769459       1.58518030       0.26289189
13
Frame=6 idx=003666 GeodesicLength=0.3333468836057966 rxn_smarts="[C:1]([C:2]1([O:3][H:9])[C:4]([H:10])([H:11])[C:5]1([H:12])[H:13])([H:6])([H:7])[H:8]>>[C:1]([C:5]([C:4]([C:2][O:3][H:9])([H:10])[H:11])([H:12])[H:13])([H:6])([H:7])[H:8]"
C       -1.06338599      -0.21452291       0.84946643
C       -0.14594835      -0.47032366      -0.82183646
O       -0.41701021       0.28971265      -1.91583593
C        1.29531868      -0.36590292      -0.44410133
C        0.68868932       0.55298663       0.54482388
H       -0.85577563      -1.07847104       1.47881947
H       -1.99556357      -0.43947665       0.32798412
H       -1.35179577       0.63116826       1.48743244
H       -1.36584833       0.28147926      -2.06607049
H        1.68902195      -1.30165238      -0.05647735
H        1.90755980       0.09367541      -1.21362170
H        1.01070126       0.42719052       1.57160182
H        0.60403685       1.59413685       0.25781511
13
Frame=7 idx=003666 GeodesicLength=0.3887450767590884 rxn_smarts="[C:1]([C:2]1([O:3][H:9])[C:4]([H:10])([H:11])[C:5]1([H:12])[H:13])([H:6])([H:7])[H:8]>>[C:1]([C:5]([C:4]([C:2][O:3][H:9])([H:10])[H:11])([H:12])[H:13])([H:6])([H:7])[H:8]"
C       -1.05999354      -0.22173954       0.86067869
C       -0.15374681      -0.44641534      -0.82903841
O       -0.40463373       0.28169958      -1.94666042
C        1.28464112      -0.36912641      -0.44173986
C        0.68243374       0.56176891       0.54348208
H       -0.83162746      -1.07746640       1.49484053
H       -1.98918204      -0.47650501       0.34734715
H       -1.37321336       0.61824849       1.49396989
H       -1.35471651       0.31514463      -2.08540784
H        1.65353247      -1.31398401      -0.05097740
H        1.91304933       0.07925448      -1.20500362
H        1.02296240       0.44591960       1.56583769
H        0.61049439       1.60320101       0.25267153
13
Frame=8 idx=003666 GeodesicLength=0.4441255956160696 rxn_smarts="[C:1]([C:2]1([O:3][H:9])[C:4]([H:10])([H:11])[C:5]1([H:12])[H:13])([H:6])([H:7])[H:8]>>[C:1]([C:5]([C:4]([C:2][O:3][H:9])([H:10])[H:11])([H:12])[H:13])([H:6])([H:7])[H:8]"
C       -1.05648343      -0.22897927       0.87227694
C       -0.16210863      -0.42161932      -0.83590979
O       -0.39243775       0.27128220      -1.97764772
C        1.27308151      -0.37221227      -0.43942101
C        0.67599534       0.57081972       0.54232793
H       -0.80724134      -1.07571282       1.51143141
H       -1.98136061      -0.51452703       0.36709882
H       -1.39507242       0.60442722       1.50069597
H       -1.34135640       0.35078340      -2.10575274
H        1.61699505      -1.32571796      -0.04606714
H        1.91748244       0.06453745      -1.19628696
H        1.03538211       0.46455236       1.55968051
H        0.61712413       1.61236631       0.24757378
13
Frame=9 idx=003666 GeodesicLength=0.49934346414782516 rxn_smarts="[C:1]([C:2]1([O:3][H:9])[C:4]([H:10])([H:11])[C:5]1([H:12])[H:13])([H:6])([H:7])[H:8]>>[C:1]([C:5]([C:4]([C:2][O:3][H:9])([H:10])[H:11])([H:12])[H:13])([H:6])([H:7])[H:8]"
C       -1.05281168      -0.23615580       0.88423481
C       -0.17105212      -0.39578042      -0.84239242
O       -0.38076376       0.25836061      -2.00843884
C        1.26054990      -0.37507003      -0.43717845
C        0.66938288       0.58011830       0.54144283
H       -0.78266574      -1.07315957       1.52846615
H       -1.97191191      -0.55332223       0.38718644
H       -1.41729585       0.58970171       1.50760117
H       -1.32537351       0.38793456      -2.12737762
H        1.57934647      -1.33680570      -0.04191180
H        1.92065348       0.04966849      -1.18750558
H        1.04795868       0.48287877       1.55312923
H        0.62398317       1.62163131       0.24274407
13
Frame=10 idx=003666 GeodesicLength=0.5545355390066202 rxn_smarts="[C:1]([C:2]1([O:3][H:9])[C:4]([H:10])([H:11])[C:5]1([H:12])[H:13])([H:6])([H:7])[H:8]>>[C:1]([C:5]([C:4]([C:2][O:3][H:9])([H:10])[H:11])([H:12])[H:13])([H:6])([H:7])[H:8]"
C       -1.04903342      -0.24316351       0.89660839
C       -0.18062475      -0.36862544      -0.84848794
O       -0.36994803       0.24309977      -2.03874541
C        1.24703414      -0.37757974      -0.43508042
C        0.66271021       0.58963209       0.54101291
H       -0.75803283      -1.06976477       1.54595501
H       -1.96082876      -0.59262670       0.40754408
H       -1.43987683       0.57406819       1.51483544
H       -1.30664744       0.42567842      -2.15103382
H        1.54057187      -1.34720195      -0.03873856
H        1.92251172       0.03486145      -1.17876544
H        1.06085169       0.50061464       1.54636421
H        0.63131244       1.63100755       0.23853154
13
Frame=11 idx=003666 GeodesicLength=0.6096882020891802 rxn_smarts="[C:1]([C:2]1([O:3][H:9])[C:4]([H:10])([H:11])[C:5]1([H:12])[H:13])([H:6])([H:7])[H:8]>>[C:1]([C:5]([C:4]([C:2][O:3][H:9])([H:10])[H:11])([H:12])[H:13])([H:6])([H:7])[H:8]"
C       -1.04513453      -0.24984520       0.90937734
C       -0.19082771      -0.33972071      -0.85416591
O       -0.36029018       0.22588890      -2.06815218
C        1.23247774      -0.37959292      -0.43317013
C        0.65610542       0.59932824       0.54125774
H       -0.73345974      -1.06550994       1.56373367
H       -1.94800087      -0.63205968       0.42802544
H       -1.46272435       0.55755554       1.52247952
H       -1.28524506       0.46258745      -2.17744359
H        1.50053543      -1.35687182      -0.03682056
H        1.92296856       0.02034217      -1.17008308
H        1.07419326       0.51737756       1.53954649
H        0.63940204       1.64052040       0.23541524
13
Frame=12 idx=003666 GeodesicLength=0.6648535178727576 rxn_smarts="[C:1]([C:2]1([O:3][H:9])[C:4]([H:10])([H:11])[C:5]1([H:12])[H:13])([H:6])([H:7])[H:8]>>[C:1]([C:5]([C:4]([C:2][O:3][H:9])([H:10])[H:11])([H:12])[H:13])([H:6])([H:7])[H:8]"
C       -1.04111266      -0.25617403       0.92248750
C       -0.20160779      -0.30890242      -0.85942761
O       -0.35207301       0.20652033      -2.09642318
C        1.21686489      -0.38104611      -0.43146914
C        0.64961790       0.60922448       0.54224003
H       -0.70899640      -1.06037388       1.58176015
H       -1.93327744      -0.67157836       0.44846143
H       -1.48589829       0.54013244       1.53041243
H       -1.26107736       0.49853685      -2.20655061
H        1.45920200      -1.36576380      -0.03621877
H        1.92198588       0.00616415      -1.16152127
H        1.08801565       0.53307227       1.53272267
H        0.64835663       1.65018808       0.23352637
13
Frame=13 idx=003666 GeodesicLength=0.7200664797112493 rxn_smarts="[C:1]([C:2]1([O:3][H:9])[C:4]([H:10])([H:11])[C:5]1([H:12])[H:13])([H:6])([H:7])[H:8]>>[C:1]([C:5]([C:4]([C:2][O:3][H:9])([H:10])[H:11])([H:12])[H:13])([H:6])([H:7])[H:8]"
C       -1.03696340      -0.26190377       0.93584339
C       -0.21286914      -0.27541576      -0.86425494
O       -0.34545224       0.18584937      -2.12308530
C        1.20018878      -0.38171753      -0.42999949
C        0.64350621       0.61927875       0.54432043
H       -0.68485124      -1.05439541       1.59970253
H       -1.91660112      -0.71054777       0.46847922
H       -1.50924939       0.52185867       1.53873855
H       -1.23495937       0.53102147      -2.23926571
H        1.41634998      -1.37381629      -0.03730754
H        1.91962046      -0.00738198      -1.15300017
H        1.10255789       0.54712579       1.52620626
H        0.65872259       1.66004448       0.23362276
13
Frame=14 idx=003666 GeodesicLength=0.7753823652545995 rxn_smarts="[C:1]([C:2]1([O:3][H:9])[C:4]([H:10])([H:11])[C:5]1([H:12])[H:13])([H:6])([H:7])[H:8]>>[C:1]([C:5]([C:4]([C:2][O:3][H:9])([H:10])[H:11])([H:12])[H:13])([H:6])([H:7])[H:8]"
C       -1.03269266      -0.26713876       0.94932726
C       -0.22446049      -0.23945123      -0.86866759
O       -0.34083823       0.16301994      -2.14794064
C        1.18247849      -0.38163207      -0.42875230
C        0.63772156       0.62954571       0.54736185
H       -0.66101122      -1.04754374       1.61763091
H       -1.89776346      -0.74922258       0.48785193
H       -1.53296736       0.50263178       1.54706567
H       -1.20648623       0.56131728      -2.27463221
H        1.37208283      -1.38092847      -0.03988449
H        1.91583095      -0.02041574      -1.14465217
H        1.11771775       0.55974918       1.51987886
H        0.67038808       1.67006870       0.23541292
13
Frame=15 idx=003666 GeodesicLength=0.8308515175119651 rxn_smarts="[C:1]([C:2]1([O:3][H:9])[C:4]([H:10])([H:11])[C:5]1([H:12])[H:13])([H:6])([H:7])[H:8]>>[C:1]([C:5]([C:4]([C:2][O:3][H:9])([H:10])[H:11])([H:12])[H:13])([H:6])([H:7])[H:8]"
C       -1.02831521      -0.27172060       0.96276308
C       -0.23615505      -0.20053250      -0.87267233
O       -0.33848578       0.13848369      -2.17048443
C        1.16380190      -0.38062915      -0.42772483
C        0.63245893       0.64000252       0.55157774
H       -0.63766897      -1.03987050       1.63524504
H       -1.87669966      -0.78712705       0.50610880
H       -1.55700056       0.48247267       1.55526865
H       -1.17635917       0.58784515      -2.31280834
H        1.32633237      -1.38698119      -0.04412671
H        1.91071685      -0.03277228      -1.13644080
H        1.13362578       0.57058183       1.51393299
H        0.68374855       1.68024743       0.23936115
13
Frame=16 idx=003666 GeodesicLength=0.8865036394408035 rxn_smarts="[C:1]([C:2]1([O:3][H:9])[C:4]([H:10])([H:11])[C:5]1([H:12])[H:13])([H:6])([H:7])[H:8]>>[C:1]([C:5]([C:4]([C:2][O:3][H:9])([H:10])[H:11])([H:12])[H:13])([H:6])([H:7])[H:8]"
C       -1.02385447      -0.27573078       0.97599856
C       -0.24773731      -0.15897933      -0.87630456
O       -0.33904240       0.11173223      -2.19023887
C        1.14423864      -0.37874485      -0.42690664
C        0.62767344       0.65066550       0.55680367
H       -0.61484607      -1.03133757       1.65257918
H       -1.85324914      -0.82439847       0.52299946
H       -1.58150578       0.46129018       1.56289334
H       -1.14406360       0.61159194      -2.35287895
H        1.27930674      -1.39184952      -0.04978142
H        1.90422854      -0.04456019      -1.12854111
H        1.15016704       0.57981915       1.50822539
H        0.69868437       1.69050171       0.24515196
