17
Frame=0 idx=011298 GeodesicLength=0.0 rxn_smarts="[C:1]([C:2]1([O:3][H:11])[C:4]([H:12])([H:13])[C:5]([H:14])=[C:6]([H:15])[C:7]1([H:16])[H:17])([H:8])([H:9])[H:10]>>[C:1]([C:2](=[O:3])/[C:7](=[C:6](\[C:5](=[C:4]([H:12])[H:13])[H:14])[H:15])[H:17])([H:8])([H:9])[H:10].[H:11][H:16]"
C       -1.79778092      -0.61636948      -0.38399120
C       -0.53456529      -0.09712500       0.30624501
O       -0.62247334       0.00195390       1.61139401
C       -0.10988157       1.44253545      -0.20593319
C        1.32839219       1.38394591      -0.25568611
C        1.77016799       0.09312687      -0.44475647
C        0.71356926      -0.77875327      -0.25828117
H       -2.02706626      -1.60513495       0.01756808
H       -1.69628719      -0.68989754      -1.47227325
H       -2.63536832       0.04130751      -0.15028639
H        0.36129705      -1.29793688       1.86743160
H       -0.55231206       1.47839413      -1.20263886
H       -0.54186710       2.21581033       0.42630203
H        1.98051025       2.23617299      -0.10035134
H        2.78387578      -0.20049548      -0.68185062
H        0.89805943      -1.82968833       1.60946314
H        0.68173017      -1.77784615      -0.68235519
17
Frame=1 idx=011298 GeodesicLength=0.12865547327975163 rxn_smarts="[C:1]([C:2]1([O:3][H:11])[C:4]([H:12])([H:13])[C:5]([H:14])=[C:6]([H:15])[C:7]1([H:16])[H:17])([H:8])([H:9])[H:10]>>[C:1]([C:2](=[O:3])/[C:7](=[C:6](\[C:5](=[C:4]([H:12])[H:13])[H:14])[H:15])[H:17])([H:8])([H:9])[H:10].[H:11][H:16]"
C       -1.79315721      -0.64006670      -0.39398047
C       -0.53898019      -0.10234596       0.29642909
O       -0.64103662       0.00173840       1.60011093
C       -0.09309410       1.46817758      -0.19154832
C        1.34040118       1.38805378      -0.26403887
C        1.76838829       0.09220790      -0.45435484
C        0.71747413      -0.78432222      -0.24443738
H       -2.00214337      -1.64077185      -0.01081471
H       -1.69322239      -0.69718362      -1.48300282
H       -2.64571790      -0.00844332      -0.14367318
H        0.32633128      -1.27403591       1.91169351
H       -0.56913580       1.52043923      -1.17092796
H       -0.49988552       2.24666074       0.45138728
H        2.00646137       2.23062051      -0.11483158
H        2.76929488      -0.19861876      -0.74462722
H        0.86248557      -1.82719761       1.64509380
H        0.68553640      -1.77491218      -0.68847728
17
Frame=2 idx=011298 GeodesicLength=0.25722849180039387 rxn_smarts="[C:1]([C:2]1([O:3][H:11])[C:4]([H:12])([H:13])[C:5]([H:14])=[C:6]([H:15])[C:7]1([H:16])[H:17])([H:8])([H:9])[H:10]>>[C:1]([C:2](=[O:3])/[C:7](=[C:6](\[C:5](=[C:4]([H:12])[H:13])[H:14])[H:15])[H:17])([H:8])([H:9])[H:10].[H:11][H:16]"
C       -1.78786371      -0.66458239      -0.40446927
C       -0.54322947      -0.10779003       0.28607847
O       -0.66001175       0.00185125       1.58803811
C       -0.07543263       1.49420821      -0.17581142
C        1.35239406       1.39223998      -0.27364095
C        1.76631620       0.09134404      -0.46473839
C        0.72175494      -0.78986184      -0.23023025
H       -1.97579141      -1.67649622      -0.03972269
H       -1.68970991      -0.70511085      -1.49401228
H       -2.65510175      -0.06036045      -0.13795236
H        0.28843596      -1.24933386       1.95562093
H       -0.58657695       1.56352845      -1.13527735
H       -0.45500759       2.27719533       0.47868918
H        2.03254504       2.22497372      -0.13247941
H        2.75178448      -0.19679319      -0.80714238
H        0.82561849      -1.82343898       1.68126665
H        0.68987600      -1.77157320      -0.69421661
17
Frame=3 idx=011298 GeodesicLength=0.38570940827276234 rxn_smarts="[C:1]([C:2]1([O:3][H:11])[C:4]([H:12])([H:13])[C:5]([H:14])=[C:6]([H:15])[C:7]1([H:16])[H:17])([H:8])([H:9])[H:10]>>[C:1]([C:2](=[O:3])/[C:7](=[C:6](\[C:5](=[C:4]([H:12])[H:13])[H:14])[H:15])[H:17])([H:8])([H:9])[H:10].[H:11][H:16]"
C       -1.78190605      -0.68989962      -0.41547218
C       -0.54731548      -0.11346834       0.27512248
O       -0.67937340       0.00229366       1.57507750
C       -0.05684258       1.52061339      -0.15866970
C        1.36424830       1.39653511      -0.28469524
C        1.76383673       0.09056881      -0.47607741
C        0.72638280      -0.79532617      -0.21576617
H       -1.94802960      -1.71224943      -0.06912665
H       -1.68581582      -0.71372354      -1.50531111
H       -2.66341228      -0.11438693      -0.13314792
H        0.24740508      -1.22377640       1.99901747
H       -0.60457957       1.60761827      -1.09526927
H       -0.40705161       2.30723048       0.50824529
H        2.05857653       2.21924200      -0.15346982
H        2.73146385      -0.19509281      -0.86892523
H        0.78764478      -1.81824940       1.71784203
H        0.69476832      -1.76792910      -0.69937407
17
Frame=4 idx=011298 GeodesicLength=0.5140925037351378 rxn_smarts="[C:1]([C:2]1([O:3][H:11])[C:4]([H:12])([H:13])[C:5]([H:14])=[C:6]([H:15])[C:7]1([H:16])[H:17])([H:8])([H:9])[H:10]>>[C:1]([C:2](=[O:3])/[C:7](=[C:6](\[C:5](=[C:4]([H:12])[H:13])[H:14])[H:15])[H:17])([H:8])([H:9])[H:10].[H:11][H:16]"
C       -1.77530241      -0.71600569      -0.42698374
C       -0.55124853      -0.11938501       0.26349525
O       -0.69908859       0.00307454       1.56113887
C       -0.03726281       1.54737574      -0.14008113
C        1.37581300       1.40098973      -0.29741939
C        1.76084653       0.08993345      -0.48844972
C        0.73132154      -0.80064852      -0.20116984
H       -1.91888467      -1.74797895      -0.09896872
H       -1.68163282      -0.72308025      -1.51689517
H       -2.67054962      -0.17045639      -0.12925255
H        0.20309327      -1.19725807       2.04167202
H       -0.62304063       1.65262301      -1.05046014
H       -0.35583278       2.33656696       0.54005286
H        2.08431888       2.21347479      -0.17802831
H        2.70858552      -0.19359404      -0.92947116
H        0.74862813      -1.81156324       1.75462173
H        0.70023599      -1.76406805      -0.70380086
17
Frame=5 idx=011298 GeodesicLength=0.6423608327576258 rxn_smarts="[C:1]([C:2]1([O:3][H:11])[C:4]([H:12])([H:13])[C:5]([H:14])=[C:6]([H:15])[C:7]1([H:16])[H:17])([H:8])([H:9])[H:10]>>[C:1]([C:2](=[O:3])/[C:7](=[C:6](\[C:5](=[C:4]([H:12])[H:13])[H:14])[H:15])[H:17])([H:8])([H:9])[H:10].[H:11][H:16]"
C       -1.76804073      -0.74289769      -0.43900155
C       -0.55503908      -0.12553297       0.25114923
O       -0.71915982       0.00424245       1.54613845
C       -0.01660228       1.57446002      -0.12001509
C        1.38694399       1.40565638      -0.31194460
C        1.75729273       0.08948182      -0.50177438
C        0.73655421      -0.80575220      -0.18649520
H       -1.88835398      -1.78364159      -0.12919213
H       -1.67719077      -0.73327431      -1.52875791
H       -2.67639787      -0.22851166      -0.12628084
H        0.15531515      -1.16961479       2.08341487
H       -0.64171940       1.69838968      -1.00042302
H       -0.30119044       2.36498497       0.57403015
H        2.10952492       2.20770278      -0.20616715
H        2.68323325      -0.19226175      -0.98887362
H        0.70849460      -1.80333579       1.79147296
H        0.70633551      -1.76009535      -0.70728020
17
Frame=6 idx=011298 GeodesicLength=0.7705112843389654 rxn_smarts="[C:1]([C:2]1([O:3][H:11])[C:4]([H:12])([H:13])[C:5]([H:14])=[C:6]([H:15])[C:7]1([H:16])[H:17])([H:8])([H:9])[H:10]>>[C:1]([C:2](=[O:3])/[C:7](=[C:6](\[C:5](=[C:4]([H:12])[H:13])[H:14])[H:15])[H:17])([H:8])([H:9])[H:10].[H:11][H:16]"
C       -1.76014124      -0.77058015      -0.45147588
C       -0.55870373      -0.13190021       0.23803292
O       -0.73953499       0.00582748       1.53000303
C        0.00523669       1.60183770      -0.09845014
C        1.39744979       1.41061153      -0.32842781
C        1.75314418       0.08929464      -0.51591797
C        0.74203862      -0.81053759      -0.17186895
H       -1.85645829      -1.81919947      -0.15966345
H       -1.67260437      -0.74441874      -1.54086259
H       -2.68085104      -0.28847312      -0.12416385
H        0.10394637      -1.14070988       2.12398384
H       -0.66033239       1.74471613      -0.94470390
H       -0.24293561       2.39226686       0.61006660
H        2.13386148       2.20206521      -0.23819300
H        2.65569400      -0.19112713      -1.04669768
H        0.66708821      -1.79363099       1.82812496
H        0.71310231      -1.75604229      -0.70978611
17
Frame=7 idx=011298 GeodesicLength=0.8985299011502617 rxn_smarts="[C:1]([C:2]1([O:3][H:11])[C:4]([H:12])([H:13])[C:5]([H:14])=[C:6]([H:15])[C:7]1([H:16])[H:17])([H:8])([H:9])[H:10]>>[C:1]([C:2](=[O:3])/[C:7](=[C:6](\[C:5](=[C:4]([H:12])[H:13])[H:14])[H:15])[H:17])([H:8])([H:9])[H:10].[H:11][H:16]"
C       -1.75161683      -0.79906828      -0.46433607
C       -0.56226383      -0.13846296       0.22410036
O       -0.76016859       0.00789319       1.51266079
C        0.02837500       1.62946440      -0.07539897
C        1.40714321       1.41592406      -0.34692038
C        1.74841636       0.08944979      -0.53066874
C        0.74773448      -0.81490211      -0.15738921
H       -1.82320321      -1.85462544      -0.19022292
H       -1.66798014      -0.75666062      -1.55315266
H       -2.68380323      -0.35027222      -0.12279888
H        0.04884997      -1.11036738       2.16311708
H       -0.67844348       1.79132289      -0.88292124
H       -0.18092377       2.41819230       0.64793901
H        2.15698256       2.19667732      -0.27419115
H        2.62614191      -0.19013180      -1.10283489
H        0.62418583      -1.78251198       1.86433119
H        0.72057376      -1.75192116      -0.71131331
17
Frame=8 idx=011298 GeodesicLength=1.0264037570907016 rxn_smarts="[C:1]([C:2]1([O:3][H:11])[C:4]([H:12])([H:13])[C:5]([H:14])=[C:6]([H:15])[C:7]1([H:16])[H:17])([H:8])([H:9])[H:10]>>[C:1]([C:2](=[O:3])/[C:7](=[C:6](\[C:5](=[C:4]([H:12])[H:13])[H:14])[H:15])[H:17])([H:8])([H:9])[H:10].[H:11][H:16]"
C       -1.74252092      -0.82839021      -0.47745557
C       -0.56575637      -0.14518789       0.20929279
O       -0.78097288       0.01051325       1.49403984
C        0.05293498       1.65729278      -0.05093275
C        1.41582449       1.42166567      -0.36740743
C        1.74314566       0.09004151      -0.54580436
C        0.75357002      -0.81874199      -0.14321475
H       -1.78861976      -1.88990641      -0.22064249
H       -1.66352344      -0.77017669      -1.56552796
H       -2.68517409      -0.41384651      -0.12196962
H       -0.01002675      -1.07838433       2.20049471
H       -0.69550569       1.83785986      -0.81480610
H       -0.11506286       2.44256412       0.68730039
H        2.17851588       2.19166418      -0.31413425
H        2.59488896      -0.18920192      -1.15697016
H        0.57954241      -1.77008528       1.89976376
H        0.72874037      -1.74768013      -0.71202604
17
Frame=9 idx=011298 GeodesicLength=1.1541149285987748 rxn_smarts="[C:1]([C:2]1([O:3][H:11])[C:4]([H:12])([H:13])[C:5]([H:14])=[C:6]([H:15])[C:7]1([H:16])[H:17])([H:8])([H:9])[H:10]>>[C:1]([C:2](=[O:3])/[C:7](=[C:6](\[C:5](=[C:4]([H:12])[H:13])[H:14])[H:15])[H:17])([H:8])([H:9])[H:10].[H:11][H:16]"
C       -1.73292418      -0.85859378      -0.49065608
C       -0.56923073      -0.15202857       0.19354080
O       -0.80183553       0.01378840       1.47406522
C        0.07903905       1.68527266      -0.02518657
C        1.42332882       1.42790717      -0.38970610
C        1.73738498       0.09116484      -0.56110054
C        0.75945077      -0.82196366      -0.12953072
H       -1.75273581      -1.92505002      -0.25064310
H       -1.65950233      -0.78518666      -1.57784078
H       -2.68489122      -0.47916642      -0.12135332
H       -0.07266217      -1.04449688       2.23577303
H       -0.71082621       1.88390417      -0.74028683
H       -0.04537607       2.46523005       0.72766207
H        2.19813563       2.18713138      -0.35769825
H        2.56222495      -0.18819673      -1.20889429
H        0.53286691      -1.75649178       1.93405081
H        0.73755313      -1.74322416      -0.71219534
17
Frame=10 idx=011298 GeodesicLength=1.2816545157258938 rxn_smarts="[C:1]([C:2]1([O:3][H:11])[C:4]([H:12])([H:13])[C:5]([H:14])=[C:6]([H:15])[C:7]1([H:16])[H:17])([H:8])([H:9])[H:10]>>[C:1]([C:2](=[O:3])/[C:7](=[C:6](\[C:5](=[C:4]([H:12])[H:13])[H:14])[H:15])[H:17])([H:8])([H:9])[H:10].[H:11][H:16]"
C       -1.72294726      -0.88975124      -0.50370721
C       -0.57276087      -0.15893998       0.17675455
O       -0.82262479       0.01780434       1.45266161
C        0.10679684       1.71335606       0.00166308
C        1.42953405       1.43469988      -0.41345688
C        1.73119962       0.09293535      -0.57635651
C        0.76524581      -0.82449246      -0.11659139
H       -1.71564582      -1.96007792      -0.27985293
H       -1.65628409      -0.80198005      -1.58990699
H       -2.68290606      -0.54618934      -0.12053740
H       -0.13897997      -1.00843860       2.26855660
H       -0.72360693       1.92896486      -0.65950383
H        0.02800359       2.48611477       0.76843228
H        2.21556610       2.18316835      -0.40434749
H        2.52854673      -0.18692579      -1.25831386
H        0.48395452      -1.74185779       1.96677311
H        0.74690851      -1.73839044      -0.71226674
17
Frame=11 idx=011298 GeodesicLength=1.4090206005400974 rxn_smarts="[C:1]([C:2]1([O:3][H:11])[C:4]([H:12])([H:13])[C:5]([H:14])=[C:6]([H:15])[C:7]1([H:16])[H:17])([H:8])([H:9])[H:10]>>[C:1]([C:2](=[O:3])/[C:7](=[C:6](\[C:5](=[C:4]([H:12])[H:13])[H:14])[H:15])[H:17])([H:8])([H:9])[H:10].[H:11][H:16]"
C       -1.71272429      -0.92196150      -0.51634201
C       -0.57643683      -0.16587288       0.15882442
O       -0.84320631       0.02265913       1.42974515
C        0.13629517       1.74149901       0.02939579
C        1.43442882       1.44209139      -0.43807343
C        1.72463959       0.09545464      -0.59144761
C        0.77080620      -0.82628462      -0.10467203
H       -1.67744657      -1.99504211      -0.30788058
H       -1.65428527      -0.82089645      -1.60150675
H       -2.67917070      -0.61491853      -0.11901213
H       -0.20884335      -0.96987800       2.29845021
H       -0.73297446       1.97251989      -0.57288151
H        0.10476479       2.50523303       0.80893843
H        2.23070483       2.17981384      -0.45312919
H        2.49415056      -0.18511238      -1.30518362
H        0.43263491      -1.72629239       1.99751497
H        0.75666289      -1.73301207      -0.71274011
17
Frame=12 idx=011298 GeodesicLength=1.5362274262963587 rxn_smarts="[C:1]([C:2]1([O:3][H:11])[C:4]([H:12])([H:13])[C:5]([H:14])=[C:6]([H:15])[C:7]1([H:16])[H:17])([H:8])([H:9])[H:10]>>[C:1]([C:2](=[O:3])/[C:7](=[C:6](\[C:5](=[C:4]([H:12])[H:13])[H:14])[H:15])[H:17])([H:8])([H:9])[H:10].[H:11][H:16]"
C       -1.70240229      -0.95534667      -0.52827496
C       -0.58036555      -0.17278863       0.13961973
O       -0.86345844       0.02842941       1.40522364
C        0.16758437       1.76966151       0.05778725
C        1.43812090       1.45012445      -0.46281289
C        1.71772925       0.09881322      -0.60633884
C        0.77596879      -0.82733086      -0.09407168
H       -1.63825952      -2.03001829      -0.33432977
H       -1.65395517      -0.84231969      -1.61240161
H       -2.67363004      -0.68537656      -0.11620893
H       -0.28207247      -0.92843895       2.32505719
H       -0.73808112       2.01404672      -0.48107390
H        0.18444952       2.52269271       0.84852136
H        2.24364086       2.17706881      -0.50281218
H        2.45927302      -0.18242572      -1.34960558
H        0.37881841      -1.70986712       2.02587997
H        0.76663949      -1.72692434      -0.71415880
17
Frame=13 idx=011298 GeodesicLength=1.663305692737805 rxn_smarts="[C:1]([C:2]1([O:3][H:11])[C:4]([H:12])([H:13])[C:5]([H:14])=[C:6]([H:15])[C:7]1([H:16])[H:17])([H:8])([H:9])[H:10]>>[C:1]([C:2](=[O:3])/[C:7](=[C:6](\[C:5](=[C:4]([H:12])[H:13])[H:14])[H:15])[H:17])([H:8])([H:9])[H:10].[H:11][H:16]"
C       -1.69210564      -0.99004338      -0.53922504
C       -0.58465919      -0.17966336       0.11899574
O       -0.88328972       0.03517104       1.37899395
C        0.20067716       1.79780266       0.08664496
C        1.44084085       1.45884402      -0.48686560
C        1.71045596       0.10307990      -0.62108817
C        0.78057538      -0.82764969      -0.08507299
H       -1.59818470      -2.06509938      -0.35885827
H       -1.65571817      -0.86664641      -1.62234522
H       -2.66618679      -0.75762380      -0.11152759
H       -0.35849778      -0.88369806       2.34799047
H       -0.73818963       2.05305751      -0.38487812
H        0.26649586       2.53867690       0.88662039
H        2.25467953       2.17489980      -0.55198704
H        2.42399460      -0.17850469      -1.39189456
H        0.32245787      -1.69261165       2.05152094
H        0.77665441      -1.71999141      -0.71702386
17
Frame=14 idx=011298 GeodesicLength=1.790312160333797 rxn_smarts="[C:1]([C:2]1([O:3][H:11])[C:4]([H:12])([H:13])[C:5]([H:14])=[C:6]([H:15])[C:7]1([H:16])[H:17])([H:8])([H:9])[H:10]>>[C:1]([C:2](=[O:3])/[C:7](=[C:6](\[C:5](=[C:4]([H:12])[H:13])[H:14])[H:15])[H:17])([H:8])([H:9])[H:10].[H:11][H:16]"
C       -1.68190873      -1.02618176      -0.54895635
C       -0.58942359      -0.18650366       0.09680837
O       -0.90267137       0.04288792       1.35094343
C        0.23556472       1.82587089       0.11589199
C        1.44287219       1.46830271      -0.50951574
C        1.70278097       0.10830637      -0.63580222
C        0.78449785      -0.82728435      -0.07789961
H       -1.55733030      -2.10037180      -0.38116434
H       -1.65986870      -0.89429540      -1.63111670
H       -2.65668948      -0.83164547      -0.10447874
H       -0.43808046      -0.83525955       2.36685845
H       -0.73274829       2.08911566      -0.28500706
H        0.35039367       2.55336256       0.92292822
H        2.26420463       2.17330417      -0.59948916
H        2.38827932      -0.17298987      -1.43246136
H        0.26357199      -1.67449585       2.07418629
H        0.78655559      -1.71212256      -0.72172546
17
Frame=15 idx=011298 GeodesicLength=1.9173222789845394 rxn_smarts="[C:1]([C:2]1([O:3][H:11])[C:4]([H:12])([H:13])[C:5]([H:14])=[C:6]([H:15])[C:7]1([H:16])[H:17])([H:8])([H:9])[H:10]>>[C:1]([C:2](=[O:3])/[C:7](=[C:6](\[C:5](=[C:4]([H:12])[H:13])[H:14])[H:15])[H:17])([H:8])([H:9])[H:10].[H:11][H:16]"
C       -1.67183700      -1.06387025      -0.55727377
C       -0.59475546      -0.19334528       0.07292022
O       -0.92162316       0.05155378       1.32095509
C        0.27222860       1.85378857       0.14555206
C        1.44448330       1.47855702      -0.53023306
C        1.69465553       0.11453280      -0.65059844
C        0.78763903      -0.82628818      -0.07271463
H       -1.51576207      -2.13590899      -0.40106386
H       -1.66660713      -0.92562697      -1.63850857
H       -2.64492631      -0.90741316      -0.09460638
H       -0.52088957      -0.78271015       2.38124844
H       -0.72138204       2.12182269      -0.18199244
H        0.43574335       2.56689168       0.95733965
H        2.27258638       2.17231213      -0.64448164
H        2.35206576      -0.16556700      -1.47167865
H        0.20215779      -1.65547370       2.09369212
H        0.79622298      -1.70325499      -0.72855614
17
Frame=16 idx=011298 GeodesicLength=2.044425415308099 rxn_smarts="[C:1]([C:2]1([O:3][H:11])[C:4]([H:12])([H:13])[C:5]([H:14])=[C:6]([H:15])[C:7]1([H:16])[H:17])([H:8])([H:9])[H:10]>>[C:1]([C:2](=[O:3])/[C:7](=[C:6](\[C:5](=[C:4]([H:12])[H:13])[H:14])[H:15])[H:17])([H:8])([H:9])[H:10].[H:11][H:16]"
C       -1.66185497      -1.10318774      -0.56402230
C       -0.60073452      -0.20025800       0.04720775
O       -0.94021135       0.06112158       1.28890126
C        0.31065301       1.88144387       0.17574656
C        1.44587387       1.48966002      -0.54869757
C        1.68601780       0.12179497      -0.66558580
C        0.78993648      -0.82471910      -0.06961612
H       -1.47350496      -2.17176019      -0.41846599
H       -1.67601173      -0.96094724      -1.64431685
H       -2.63061552      -0.98484047      -0.08153112
H       -0.60713473      -0.72561121       2.39068898
H       -0.70385328       2.15077105      -0.07610324
H        0.52230120       2.57932953       0.98993253
H        2.28010343       2.17198357      -0.68648910
H        2.31525506      -0.15596703      -1.50987273
H        0.13820347      -1.63545928       2.10992229
H        0.80557674      -1.69335432      -0.73769855
