16
Frame=0 idx=004907 GeodesicLength=0.0 rxn_smarts="[C:1]([C:2]([C@@:3]1([C:4]([H:12])([H:13])[H:14])[C:5]([H:15])([H:16])[O:6]1)([H:10])[H:11])([H:7])([H:8])[H:9]>>[C:1]([C:2]([O:6][C:5]([C:3][C:4]([H:12])([H:13])[H:14])([H:15])[H:16])([H:10])[H:11])([H:7])([H:8])[H:9]"
C        1.94918392      -0.12181222      -0.00251530
C        0.95314504       0.86611806      -0.53703420
C       -0.66336035       0.12330352       0.52239985
C       -1.01548904      -1.31096661       0.73680528
C       -1.63612764       0.90268380      -0.22887500
O       -0.67390099       0.40616380      -1.14583557
H        1.76876658      -1.11613169      -0.41616109
H        1.91883777      -0.18519614       1.08312169
H        2.94764818       0.17998672      -0.33931795
H        1.18236466       1.07211748      -1.58573560
H        0.88118731       1.79050461       0.02142228
H       -0.13142292      -1.95164921       0.75799733
H       -1.48389536      -1.37790618       1.72458164
H       -1.71706800      -1.70828936      -0.00817430
H       -1.68000710       1.98844012      -0.14137156
H       -2.59986203       0.44263330      -0.44130750
16
Frame=1 idx=004907 GeodesicLength=0.05550170836384899 rxn_smarts="[C:1]([C:2]([C@@:3]1([C:4]([H:12])([H:13])[H:14])[C:5]([H:15])([H:16])[O:6]1)([H:10])[H:11])([H:7])([H:8])[H:9]>>[C:1]([C:2]([O:6][C:5]([C:3][C:4]([H:12])([H:13])[H:14])([H:15])[H:16])([H:10])[H:11])([H:7])([H:8])[H:9]"
C        1.95721381      -0.10126623       0.01629686
C        0.94685330       0.85000797      -0.55943078
C       -0.65699655       0.09899989       0.51076573
C       -1.02834429      -1.33012428       0.71778463
C       -1.62911567       0.90882445      -0.20923105
O       -0.69198996       0.40826737      -1.15004415
H        1.80346541      -1.10994918      -0.37226782
H        1.91721037      -0.13080003       1.10324775
H        2.95457439       0.21053085      -0.31405453
H        1.18569433       1.02083666      -1.61268863
H        0.88220995       1.79846216      -0.04008701
H       -0.15763904      -1.98889408       0.71484022
H       -1.47380689      -1.39468679       1.71660021
H       -1.75507225      -1.70470473      -0.01441614
H       -1.64785707       1.99317651      -0.09930189
H       -2.60639984       0.47131947      -0.40801339
16
Frame=2 idx=004907 GeodesicLength=0.11093673871977122 rxn_smarts="[C:1]([C:2]([C@@:3]1([C:4]([H:12])([H:13])[H:14])[C:5]([H:15])([H:16])[O:6]1)([H:10])[H:11])([H:7])([H:8])[H:9]>>[C:1]([C:2]([O:6][C:5]([C:3][C:4]([H:12])([H:13])[H:14])([H:15])[H:16])([H:10])[H:11])([H:7])([H:8])[H:9]"
C        1.96451364      -0.07913575       0.03595004
C        0.94074410       0.83250782      -0.58182662
C       -0.65085071       0.07409428       0.49860226
C       -1.04157069      -1.34967689       0.69734096
C       -1.62095259       0.91507349      -0.18838793
O       -0.71043387       0.41146061      -1.15373262
H        1.83762037      -1.10188512      -0.32417629
H        1.91392633      -0.07243576       1.12302869
H        2.96030202       0.24238971      -0.28920094
H        1.18887489       0.96484962      -1.63885639
H        0.88354840       1.80452641      -0.10499757
H       -0.18508287      -2.02594410       0.66809280
H       -1.46227816      -1.41363245       1.70718734
H       -1.79372953      -1.70002455      -0.02068491
H       -1.61320998       1.99694469      -0.05586389
H       -2.61142135       0.50088800      -0.37247491
16
Frame=3 idx=004907 GeodesicLength=0.16629806289881552 rxn_smarts="[C:1]([C:2]([C@@:3]1([C:4]([H:12])([H:13])[H:14])[C:5]([H:15])([H:16])[O:6]1)([H:10])[H:11])([H:7])([H:8])[H:9]>>[C:1]([C:2]([O:6][C:5]([C:3][C:4]([H:12])([H:13])[H:14])([H:15])[H:16])([H:10])[H:11])([H:7])([H:8])[H:9]"
C        1.97096408      -0.05529137       0.05631821
C        0.93485104       0.81364945      -0.60406809
C       -0.64495238       0.04860038       0.48594903
C       -1.05520046      -1.36958817       0.67546844
C       -1.61147613       0.92136369      -0.16632048
O       -0.72908797       0.41576588      -1.15677981
H        1.87094101      -1.09156094      -0.27187599
H        1.90877135      -0.01005598       1.14207248
H        2.96476080       0.27554433      -0.26495853
H        1.19181559       0.90402353      -1.66377781
H        0.88523201       1.80837004      -0.17326094
H       -0.21381693      -2.06255374       0.61782024
H       -1.44943349      -1.43485211       1.69616483
H       -1.83287921      -1.69423422      -0.02692003
H       -1.57581847       1.99958174      -0.01119059
H       -2.61467082       0.53123750      -0.33464095
16
Frame=4 idx=004907 GeodesicLength=0.22155902341240427 rxn_smarts="[C:1]([C:2]([C@@:3]1([C:4]([H:12])([H:13])[H:14])[C:5]([H:15])([H:16])[O:6]1)([H:10])[H:11])([H:7])([H:8])[H:9]>>[C:1]([C:2]([O:6][C:5]([C:3][C:4]([H:12])([H:13])[H:14])([H:15])[H:16])([H:10])[H:11])([H:7])([H:8])[H:9]"
C        1.97645061      -0.02966951       0.07715454
C        0.92921511       0.79354594      -0.62596437
C       -0.63932170       0.02256221       0.47286838
C       -1.06926237      -1.38977279       0.65227444
C       -1.60052802       0.92758766      -0.14306595
O       -0.74774235       0.42116000      -1.15906231
H        1.90311476      -1.07857303      -0.21572348
H        1.90153224       0.05609583       1.15986494
H        2.96789809       0.30993833      -0.24158094
H        1.19444776       0.83852246      -1.68688450
H        0.88725887       1.80964656      -0.24459815
H       -0.24384825      -2.09841450       0.56454078
H       -1.43570577      -1.45828898       1.68336029
H       -1.87214362      -1.68740232      -0.03314451
H       -1.53549277       2.00088205       0.03452475
H       -2.61587259       0.56218010      -0.29456391
16
Frame=5 idx=004907 GeodesicLength=0.27709419199438884 rxn_smarts="[C:1]([C:2]([C@@:3]1([C:4]([H:12])([H:13])[H:14])[C:5]([H:15])([H:16])[O:6]1)([H:10])[H:11])([H:7])([H:8])[H:9]>>[C:1]([C:2]([O:6][C:5]([C:3][C:4]([H:12])([H:13])[H:14])([H:15])[H:16])([H:10])[H:11])([H:7])([H:8])[H:9]"
C        1.98084769      -0.00202032       0.09846445
C        0.92384391       0.77219917      -0.64743683
C       -0.63394852      -0.00407857       0.45941344
C       -1.08378681      -1.41027510       0.62755760
C       -1.58787827       0.93369938      -0.11848431
O       -0.76631321       0.42764713      -1.16042858
H        1.93380892      -1.06244827      -0.15536355
H        1.89197870       0.12651314       1.17609620
H        2.96964926       0.34564452      -0.21912387
H        1.19664208       0.76776508      -1.70770212
H        0.88970046       1.80806700      -0.31933426
H       -0.27534618      -2.13348222       0.50782724
H       -1.42101750      -1.48427282       1.66847716
H       -1.91161781      -1.67940938      -0.03932613
H       -1.49178689       2.00067745       0.08127533
H       -2.61477584       0.59377381      -0.25191175
16
Frame=6 idx=004907 GeodesicLength=0.332667467077754 rxn_smarts="[C:1]([C:2]([C@@:3]1([C:4]([H:12])([H:13])[H:14])[C:5]([H:15])([H:16])[O:6]1)([H:10])[H:11])([H:7])([H:8])[H:9]>>[C:1]([C:2]([O:6][C:5]([C:3][C:4]([H:12])([H:13])[H:14])([H:15])[H:16])([H:10])[H:11])([H:7])([H:8])[H:9]"
C        1.98408944       0.02741800       0.11969222
C        0.91883071       0.74998817      -0.66805634
C       -0.62888599      -0.03110807       0.44567115
C       -1.09881654      -1.43079397       0.60181696
C       -1.57348416       0.93942656      -0.09303023
O       -0.78433564       0.43495926      -1.16086861
H        1.96276164      -1.04291953      -0.09219870
H        1.88008333       0.19975682       1.19006397
H        2.97005183       0.38243353      -0.19787116
H        1.19845263       0.69334807      -1.72531748
H        0.89241631       1.80325086      -0.39601195
H       -0.30835340      -2.16729472       0.44860249
H       -1.40561098      -1.51226206       1.65183972
H       -1.95104048      -1.67034969      -0.04491038
H       -1.44505060       1.99872172       0.12799360
H       -2.61110808       0.62542506      -0.20741526
16
Frame=7 idx=004907 GeodesicLength=0.38825660872135204 rxn_smarts="[C:1]([C:2]([C@@:3]1([C:4]([H:12])([H:13])[H:14])[C:5]([H:15])([H:16])[O:6]1)([H:10])[H:11])([H:7])([H:8])[H:9]>>[C:1]([C:2]([O:6][C:5]([C:3][C:4]([H:12])([H:13])[H:14])([H:15])[H:16])([H:10])[H:11])([H:7])([H:8])[H:9]"
C        1.98613869       0.05840179       0.14032317
C        0.91421627       0.72735211      -0.68758673
C       -0.62410424      -0.05839828       0.43175149
C       -1.11429029      -1.45114024       0.57545624
C       -1.55732277       0.94454354      -0.06696246
O       -0.80149596       0.44289292      -1.16033680
H        1.98952222      -1.01984591      -0.02759835
H        1.86589687       0.27481654       1.20119252
H        2.96913832       0.42003990      -0.17818656
H        1.19997304       0.61659417      -1.73914603
H        0.89540933       1.79512748      -0.47352931
H       -0.34270196      -2.19967349       0.38862363
H       -1.39066733      -1.54163646       1.63343680
H       -1.98955026      -1.66053180      -0.05021158
H       -1.39544702       1.99476336       0.17424967
H       -2.60471490       0.65669437      -0.16147569
16
Frame=8 idx=004907 GeodesicLength=0.4440636595666484 rxn_smarts="[C:1]([C:2]([C@@:3]1([C:4]([H:12])([H:13])[H:14])[C:5]([H:15])([H:16])[O:6]1)([H:10])[H:11])([H:7])([H:8])[H:9]>>[C:1]([C:2]([O:6][C:5]([C:3][C:4]([H:12])([H:13])[H:14])([H:15])[H:16])([H:10])[H:11])([H:7])([H:8])[H:9]"
C        1.98703338       0.09074798       0.16011397
C        0.91007358       0.70449084      -0.70591044
C       -0.61959161      -0.08584303       0.41766912
C       -1.13027786      -1.47113102       0.54877215
C       -1.53941731       0.94886484      -0.04062896
O       -0.81755232       0.45117896      -1.15892280
H        2.01419164      -0.99319958       0.03752934
H        1.84945899       0.35069795       1.20929553
H        2.96700915       0.45849211      -0.15992492
H        1.20139779       0.53867130      -1.74885878
H        0.89854539       1.78358242      -0.55092469
H       -0.37865310      -2.23053833       0.32796172
H       -1.37590042      -1.57210095       1.61364955
H       -2.02743241      -1.64987199      -0.05455834
H       -1.34334499       1.98870094       0.21930544
H       -2.59553991       0.68725757      -0.11456789
16
Frame=9 idx=004907 GeodesicLength=0.5003431432606941 rxn_smarts="[C:1]([C:2]([C@@:3]1([C:4]([H:12])([H:13])[H:14])[C:5]([H:15])([H:16])[O:6]1)([H:10])[H:11])([H:7])([H:8])[H:9]>>[C:1]([C:2]([O:6][C:5]([C:3][C:4]([H:12])([H:13])[H:14])([H:15])[H:16])([H:10])[H:11])([H:7])([H:8])[H:9]"
C        1.98681348       0.12428483       0.17885131
C        0.90644854       0.68157404      -0.72301911
C       -0.61529920      -0.11338025       0.40345636
C       -1.14679238      -1.49064466       0.52199140
C       -1.51980052       0.95224764      -0.01422700
O       -0.83235989       0.45962920      -1.15667347
H        2.03674518      -0.96304196       0.10243967
H        1.83085006       0.42673328       1.21424930
H        2.96372689       0.49777032      -0.14307737
H        1.20296178       0.46052911      -1.75434547
H        0.90177543       1.76865000      -0.62747313
H       -0.41634764      -2.25990184       0.26714918
H       -1.36157295      -1.60335439       1.59262250
H       -2.06455403      -1.63841786      -0.05781906
H       -1.28902776       1.98044981       0.26283204
H       -2.58356700       0.71687273      -0.06695716
16
Frame=10 idx=004907 GeodesicLength=0.5572624210502917 rxn_smarts="[C:1]([C:2]([C@@:3]1([C:4]([H:12])([H:13])[H:14])[C:5]([H:15])([H:16])[O:6]1)([H:10])[H:11])([H:7])([H:8])[H:9]>>[C:1]([C:2]([O:6][C:5]([C:3][C:4]([H:12])([H:13])[H:14])([H:15])[H:16])([H:10])[H:11])([H:7])([H:8])[H:9]"
C        1.98553701       0.15878105       0.19640548
C        0.90340522       0.65869188      -0.73890477
C       -0.61120119      -0.14089603       0.38912753
C       -1.16384965      -1.50951510       0.49536652
C       -1.49858768       0.95456456       0.01195219
O       -0.84578862       0.46804261      -1.15370470
H        2.05733329      -0.92955647       0.16643271
H        1.81017702       0.50208897       1.21612096
H        2.95936170       0.53786865      -0.12748768
H        1.20498302       0.38317138      -1.75564595
H        0.90500183       1.75041265      -0.70239586
H       -0.45603602      -2.28767219       0.20626094
H       -1.34742033      -1.63517314       1.57063239
H       -2.10105081      -1.62610991      -0.05945916
H       -1.23299824       1.97002071       0.30435294
H       -2.56886656       0.74528036      -0.01905354
16
Frame=11 idx=004907 GeodesicLength=0.6152186010121676 rxn_smarts="[C:1]([C:2]([C@@:3]1([C:4]([H:12])([H:13])[H:14])[C:5]([H:15])([H:16])[O:6]1)([H:10])[H:11])([H:7])([H:8])[H:9]>>[C:1]([C:2]([O:6][C:5]([C:3][C:4]([H:12])([H:13])[H:14])([H:15])[H:16])([H:10])[H:11])([H:7])([H:8])[H:9]"
C        1.98318019       0.19419793       0.21285584
C        0.90094025       0.63587774      -0.75358319
C       -0.60727469      -0.16834045       0.37473514
C       -1.18132383      -1.52772121       0.46877391
C       -1.47585721       0.95579030       0.03791206
O       -0.85786884       0.47641944      -1.14999911
H        2.07563168      -0.89281793       0.22983443
H        1.78762271       0.57703578       1.21495712
H        2.95392748       0.57856836      -0.11314950
H        1.20753825       0.30653875      -1.75271769
H        0.90834572       1.72900320      -0.77568949
H       -0.49793404      -2.31383829       0.14481795
H       -1.33302038      -1.66780012       1.54749513
H       -2.13694451      -1.61282064      -0.05923905
H       -1.17545541       1.95746677       0.34378915
H       -2.55150736       0.77244036       0.02920731
16
Frame=12 idx=004907 GeodesicLength=0.6740530447954662 rxn_smarts="[C:1]([C:2]([C@@:3]1([C:4]([H:12])([H:13])[H:14])[C:5]([H:15])([H:16])[O:6]1)([H:10])[H:11])([H:7])([H:8])[H:9]>>[C:1]([C:2]([O:6][C:5]([C:3][C:4]([H:12])([H:13])[H:14])([H:15])[H:16])([H:10])[H:11])([H:7])([H:8])[H:9]"
C        1.97987835       0.23011656       0.22800754
C        0.89913906       0.61325373      -0.76704085
C       -0.60351594      -0.19552872       0.36032225
C       -1.19920059      -1.54507229       0.44263913
C       -1.45189165       0.95582985       0.06327913
O       -0.86846534       0.48455796      -1.14573348
H        2.09185769      -0.85329851       0.29160861
H        1.76346257       0.65038121       1.21094906
H        2.94756255       0.61973367      -0.09999679
H        1.21107433       0.23206440      -1.74591393
H        0.91171113       1.70473244      -0.84627120
H       -0.54212425      -2.33821246       0.08350989
H       -1.31845492      -1.70080644       1.52356799
H       -2.17206723      -1.59871115      -0.05676467
H       -1.11722262       1.94295781       0.38067485
H       -2.53174314       0.79800196       0.07716247
16
Frame=13 idx=004907 GeodesicLength=0.7334844438934537 rxn_smarts="[C:1]([C:2]([C@@:3]1([C:4]([H:12])([H:13])[H:14])[C:5]([H:15])([H:16])[O:6]1)([H:10])[H:11])([H:7])([H:8])[H:9]>>[C:1]([C:2]([O:6][C:5]([C:3][C:4]([H:12])([H:13])[H:14])([H:15])[H:16])([H:10])[H:11])([H:7])([H:8])[H:9]"
C        1.97575379       0.26607707       0.24167819
C        0.89800062       0.59096188      -0.77929946
C       -0.59988080      -0.22231446       0.34590359
C       -1.21735010      -1.56139816       0.41735579
C       -1.42698570       0.95462067       0.08778876
O       -0.87753862       0.49236456      -1.14102870
H        2.10612538      -0.81160247       0.35075288
H        1.73803204       0.72108606       1.20431450
H        2.94032845       0.66111821      -0.08806921
H        1.21591637       0.16101140      -1.73577380
H        0.91500910       1.67807434      -0.91320169
H       -0.58831189      -2.36069968       0.02360219
H       -1.30435280      -1.73353630       1.49914249
H       -2.20586040      -1.58404008      -0.05231486
H       -1.05902235       1.92659796       0.41491091
H       -2.50986307       0.82167899       0.12423843
16
Frame=14 idx=004907 GeodesicLength=0.7939118944319111 rxn_smarts="[C:1]([C:2]([C@@:3]1([C:4]([H:12])([H:13])[H:14])[C:5]([H:15])([H:16])[O:6]1)([H:10])[H:11])([H:7])([H:8])[H:9]>>[C:1]([C:2]([O:6][C:5]([C:3][C:4]([H:12])([H:13])[H:14])([H:15])[H:16])([H:10])[H:11])([H:7])([H:8])[H:9]"
C        1.97083854       0.30215619       0.25408415
C        0.89753932       0.56886270      -0.79043219
C       -0.59639186      -0.24868450       0.33154359
C       -1.23572100      -1.57678032       0.39268692
C       -1.40125670       0.95224623       0.11156247
O       -0.88519851       0.49991312      -1.13587980
H        2.11828282      -0.76778750       0.40803516
H        1.71154498       0.78979531       1.19525789
H        2.93230933       0.70260270      -0.07731574
H        1.22210843       0.09273208      -1.72247012
H        0.91841319       1.64917932      -0.97695983
H       -0.63676374      -2.38119147      -0.03580537
H       -1.29009570      -1.76652289       1.47394144
H       -2.23854746      -1.56872515      -0.04557082
H       -1.00101042       1.90862823       0.44666990
H       -2.48605121       0.84357595       0.17065234
16
Frame=15 idx=004907 GeodesicLength=0.8558399631244288 rxn_smarts="[C:1]([C:2]([C@@:3]1([C:4]([H:12])([H:13])[H:14])[C:5]([H:15])([H:16])[O:6]1)([H:10])[H:11])([H:7])([H:8])[H:9]>>[C:1]([C:2]([O:6][C:5]([C:3][C:4]([H:12])([H:13])[H:14])([H:15])[H:16])([H:10])[H:11])([H:7])([H:8])[H:9]"
C        1.96506952       0.33847848       0.26552884
C        0.89774790       0.54668906      -0.80038679
C       -0.59308817      -0.27459218       0.31730286
C       -1.25421538      -1.59122349       0.36827427
C       -1.37479779       0.94880438       0.13461543
O       -0.89152385       0.50723730      -1.13027074
H        2.12808978      -0.72167137       0.46460727
H        1.68410995       0.85728000       1.18385420
H        2.92350446       0.74398690      -0.06754826
H        1.22960872       0.02630104      -1.70576680
H        0.92202546       1.61786431      -1.03814294
H       -0.68816609      -2.39920201      -0.09646584
H       -1.27402808      -1.80073026       1.44732675
H       -2.27055205      -1.55241166      -0.03531817
H       -0.94336826       1.88932438       0.47582853
H       -2.46041611       0.86386512       0.21656138
16
Frame=16 idx=004907 GeodesicLength=0.9183313517897042 rxn_smarts="[C:1]([C:2]([C@@:3]1([C:4]([H:12])([H:13])[H:14])[C:5]([H:15])([H:16])[O:6]1)([H:10])[H:11])([H:7])([H:8])[H:9]>>[C:1]([C:2]([O:6][C:5]([C:3][C:4]([H:12])([H:13])[H:14])([H:15])[H:16])([H:10])[H:11])([H:7])([H:8])[H:9]"
C        1.95872048       0.37427585       0.27567655
C        0.89861010       0.52487471      -0.80913671
C       -0.58996487      -0.29977524       0.30323806
C       -1.27263285      -1.60456415       0.34481441
C       -1.34813797       0.94429638       0.15658431
O       -0.89646948       0.51423855      -1.12442776
H        2.13581555      -0.67438436       0.51855951
H        1.65635066       0.92175418       1.17057421
H        2.91414542       0.78482111      -0.05893842
H        1.23867734      -0.03633939      -1.68661581
H        0.92573060       1.58511101      -1.09533293
H       -0.74147453      -2.41473456      -0.15568828
H       -1.25782608      -1.83483124       1.41997901
H       -2.30082404      -1.53587032      -0.02261674
H       -0.88715590       1.86900042       0.50231842
H       -2.43356444       0.88212705       0.26101220
