12
Frame=0 idx=003031 GeodesicLength=0.0 rxn_smarts="[O:1]=[C:2]([C:3]([C:4]([C:5](=[O:6])[H:12])([H:10])[H:11])([H:8])[H:9])[H:7]>>[O:1]([C@:2]1([H:7])[C:3]([H:8])([H:9])[C:4]([H:10])([H:11])[C:5]1=[O:6])[H:12]"
O       -1.04214585      -0.11059911      -1.72979127
C       -1.12824815      -0.64895536      -0.55310552
C       -0.53203177      -0.18061595       0.71991074
C        0.70014158       0.66293672       0.59463661
C        1.46147936      -0.05370244      -0.59678334
O        2.63049085      -0.26890596      -0.53567827
H       -2.01511014      -1.27620412      -0.44894373
H       -0.37754959      -1.06596703       1.34275276
H       -1.36060499       0.36469526       1.20271851
H        0.46326902       1.66981021       0.24224341
H        1.28069670       0.72804206       1.51769573
H       -0.08038706       0.17946574      -1.75565565
12
Frame=1 idx=003031 GeodesicLength=0.11824751227188807 rxn_smarts="[O:1]=[C:2]([C:3]([C:4]([C:5](=[O:6])[H:12])([H:10])[H:11])([H:8])[H:9])[H:7]>>[O:1]([C@:2]1([H:7])[C:3]([H:8])([H:9])[C:4]([H:10])([H:11])[C:5]1=[O:6])[H:12]"
O       -1.04552991      -0.09767571      -1.72487449
C       -1.10443155      -0.65320553      -0.55422450
C       -0.53913989      -0.17053012       0.73007120
C        0.69704483       0.66951516       0.60139513
C        1.43241442      -0.03933818      -0.60327354
O        2.58781346      -0.32064213      -0.56232576
H       -1.95596514      -1.32967625      -0.45665620
H       -0.39044718      -1.04745703       1.36572691
H       -1.37281943       0.38346059       1.19171448
H        0.46456585       1.68267967       0.26481297
H        1.28919523       0.71856331       1.51783630
H       -0.06270069       0.20430624      -1.77020252
12
Frame=2 idx=003031 GeodesicLength=0.236396674907059 rxn_smarts="[O:1]=[C:2]([C:3]([C:4]([C:5](=[O:6])[H:12])([H:10])[H:11])([H:8])[H:9])[H:7]>>[O:1]([C@:2]1([H:7])[C:3]([H:8])([H:9])[C:4]([H:10])([H:11])[C:5]1=[O:6])[H:12]"
O       -1.04844958      -0.08728729      -1.72017708
C       -1.08159649      -0.65659178      -0.55486885
C       -0.54639515      -0.16087759       0.73992983
C        0.69393322       0.67550184       0.60808954
C        1.40447965      -0.02554133      -0.60856853
O        2.54325613      -0.36902666      -0.58976913
H       -1.89632727      -1.37875721      -0.46363729
H       -0.40368261      -1.02975170       1.38752009
H       -1.38435384       0.40145774       1.18125372
H        0.46619627       1.69466836       0.28708320
H        1.29700902       0.70872598       1.51788481
H       -0.04406934       0.22747965      -1.78474032
12
Frame=3 idx=003031 GeodesicLength=0.3544605611548645 rxn_smarts="[O:1]=[C:2]([C:3]([C:4]([C:5](=[O:6])[H:12])([H:10])[H:11])([H:8])[H:9])[H:7]>>[O:1]([C@:2]1([H:7])[C:3]([H:8])([H:9])[C:4]([H:10])([H:11])[C:5]1=[O:6])[H:12]"
O       -1.05105353      -0.07902317      -1.71568779
C       -1.05982253      -0.65920626      -0.55505337
C       -0.55382186      -0.15162128       0.74949802
C        0.69082969       0.68085190       0.61466702
C        1.37755025      -0.01255088      -0.61281258
O        2.49719293      -0.41392185      -0.61784758
H       -1.83628265      -1.42395415      -0.46984740
H       -0.41731282      -1.01277314       1.40826255
H       -1.39524157       0.41885546       1.17130378
H        0.46824014       1.70574148       0.30895568
H        1.30416739       0.69849651       1.51781927
H       -0.02444544       0.24910538      -1.79925761
12
Frame=4 idx=003031 GeodesicLength=0.4724706412069425 rxn_smarts="[O:1]=[C:2]([C:3]([C:4]([C:5](=[O:6])[H:12])([H:10])[H:11])([H:8])[H:9])[H:7]>>[O:1]([C@:2]1([H:7])[C:3]([H:8])([H:9])[C:4]([H:10])([H:11])[C:5]1=[O:6])[H:12]"
O       -1.05348773      -0.07259866      -1.71139196
C       -1.03913565      -0.66121543      -0.55480620
C       -0.56142413      -0.14277678       0.75876964
C        0.68775021       0.68551104       0.62106421
C        1.35151035      -0.00059156      -0.61613964
O        2.45010935      -0.45507240      -0.64637985
H       -1.77610744      -1.46543905      -0.47517751
H       -0.43135663      -0.99649690       1.42804764
H       -1.40550648       0.43572268       1.16181197
H        0.47073657       1.71584621       0.33031697
H        1.31068276       0.68785504       1.51761643
H       -0.00377117       0.26925582      -1.81373171
12
Frame=5 idx=003031 GeodesicLength=0.5907882830648822 rxn_smarts="[O:1]=[C:2]([C:3]([C:4]([C:5](=[O:6])[H:12])([H:10])[H:11])([H:8])[H:9])[H:7]>>[O:1]([C@:2]1([H:7])[C:3]([H:8])([H:9])[C:4]([H:10])([H:11])[C:5]1=[O:6])[H:12]"
O       -1.05603126      -0.06774157      -1.70725312
C       -1.01955688      -0.66269616      -0.55418068
C       -0.56918143      -0.13433117       0.76773334
C        0.68469081       0.68947908       0.62722109
C        1.32626715       0.01029873      -0.61869377
O        2.40245472      -0.49259307      -0.67505475
H       -1.71598263      -1.50356928      -0.47955394
H       -0.44575169      -0.98091204       1.44689097
H       -1.41511835       0.45214953       1.15279124
H        0.47364239       1.72497155       0.35109986
H        1.31655965       0.67683410       1.51723507
H        0.01800753       0.28811029      -1.82823531
12
Frame=6 idx=003031 GeodesicLength=0.7091920280490813 rxn_smarts="[O:1]=[C:2]([C:3]([C:4]([C:5](=[O:6])[H:12])([H:10])[H:11])([H:8])[H:9])[H:7]>>[O:1]([C@:2]1([H:7])[C:3]([H:8])([H:9])[C:4]([H:10])([H:11])[C:5]1=[O:6])[H:12]"
O       -1.05874808      -0.06428418      -1.70323729
C       -1.00106108      -0.66383473      -0.55319890
C       -0.57707849      -0.12630554       0.77639309
C        0.68165404       0.69276477       0.63307432
C        1.30168320       0.02006416      -0.62065854
O        2.35457867      -0.52654336      -0.70367139
H       -1.65612220      -1.53845454      -0.48296482
H       -0.46043595      -0.96598350       1.46488994
H       -1.42413693       0.46811614       1.14419768
H        0.47695674       1.73313798       0.37122411
H        1.32183249       0.66547228       1.51663422
H        0.04087759       0.30585052      -1.84268242
12
Frame=7 idx=003031 GeodesicLength=0.8277603740036428 rxn_smarts="[O:1]=[C:2]([C:3]([C:4]([C:5](=[O:6])[H:12])([H:10])[H:11])([H:8])[H:9])[H:7]>>[O:1]([C@:2]1([H:7])[C:3]([H:8])([H:9])[C:4]([H:10])([H:11])[C:5]1=[O:6])[H:12]"
O       -1.06177631      -0.06209885      -1.69930021
C       -0.98361455      -0.66476919      -0.55190047
C       -0.58508147      -0.11871185       0.78475277
C        0.67863135       0.69539831       0.63857231
C        1.27766043       0.02874284      -0.62219143
O        2.30679192      -0.55712449      -0.73199995
H       -1.59675324      -1.57027019      -0.48541728
H       -0.47530447      -0.95169227       1.48210309
H       -1.43257958       0.48362474       1.13602273
H        0.48062064       1.74037747       0.39064088
H        1.32653101       0.65382818       1.51577133
H        0.06487426       0.32269530      -1.85705377
12
Frame=8 idx=003031 GeodesicLength=0.9465526030507146 rxn_smarts="[O:1]=[C:2]([C:3]([C:4]([C:5](=[O:6])[H:12])([H:10])[H:11])([H:8])[H:9])[H:7]>>[O:1]([C@:2]1([H:7])[C:3]([H:8])([H:9])[C:4]([H:10])([H:11])[C:5]1=[O:6])[H:12]"
O       -1.06525102      -0.06110079      -1.69541578
C       -0.96714004      -0.66564049      -0.55033442
C       -0.59315085      -0.11157637       0.79279637
C        0.67562151       0.69741447       0.64366416
C        1.25412661       0.03638208      -0.62343087
O        2.25939995      -0.58449769      -0.75982679
H       -1.53820394      -1.59912093      -0.48684845
H       -0.49025710      -0.93804386       1.49855444
H       -1.44046218       0.49862507       1.12823610
H        0.48458005       1.74673350       0.40930397
H        1.33068334       0.64196661       1.51460995
H        0.09005366       0.33885841      -1.87130868
12
Frame=9 idx=003031 GeodesicLength=1.0659960235063661 rxn_smarts="[O:1]=[C:2]([C:3]([C:4]([C:5](=[O:6])[H:12])([H:10])[H:11])([H:8])[H:9])[H:7]>>[O:1]([C@:2]1([H:7])[C:3]([H:8])([H:9])[C:4]([H:10])([H:11])[C:5]1=[O:6])[H:12]"
O       -1.06938579      -0.06122136      -1.69153079
C       -0.95153596      -0.66653397      -0.54855810
C       -0.60123634      -0.10490100       0.80051672
C        0.67260013       0.69885864       0.64831710
C        1.23105367       0.04309234      -0.62444732
O        2.21266805      -0.60895468      -0.78696500
H       -1.48082301      -1.62525011      -0.48717098
H       -0.50516076      -0.92505484       1.51421380
H       -1.44776672       0.51312532       1.12085804
H        0.48870448       1.75222143       0.42720395
H        1.33429621       0.62997707       1.51310971
H        0.11658604       0.35464116      -1.88554714
12
Frame=10 idx=003031 GeodesicLength=1.1856131804929617 rxn_smarts="[O:1]=[C:2]([C:3]([C:4]([C:5](=[O:6])[H:12])([H:10])[H:11])([H:8])[H:9])[H:7]>>[O:1]([C@:2]1([H:7])[C:3]([H:8])([H:9])[C:4]([H:10])([H:11])[C:5]1=[O:6])[H:12]"
O       -1.07416146      -0.06242916      -1.68763062
C       -0.93679025      -0.66755651      -0.54658141
C       -0.60932358      -0.09869143       0.80792733
C        0.66957224       0.69978534       0.65248771
C        1.20831815       0.04894746      -0.62541714
O        2.16668137      -0.63076655      -0.81329269
H       -1.42466439      -1.64878265      -0.48648989
H       -0.51994468      -0.91267757       1.52918661
H       -1.45456409       0.52707269       1.11385059
H        0.49300110       1.75694102       0.44431429
H        1.33743718       0.61790513       1.51123578
H        0.14443843       0.37025223      -1.89959055
12
Frame=11 idx=003031 GeodesicLength=1.305403293002571 rxn_smarts="[O:1]=[C:2]([C:3]([C:4]([C:5](=[O:6])[H:12])([H:10])[H:11])([H:8])[H:9])[H:7]>>[O:1]([C@:2]1([H:7])[C:3]([H:8])([H:9])[C:4]([H:10])([H:11])[C:5]1=[O:6])[H:12]"
O       -1.07966318      -0.06470693      -1.68367559
C       -0.92284266      -0.66875743      -0.54443257
C       -0.61738200      -0.09293899       0.81504376
C        0.66652015       0.70025076       0.65615550
C        1.18585979       0.05405664      -0.62642641
O        2.12152289      -0.65024724      -0.83871631
H       -1.36988571      -1.66994357      -0.48485780
H       -0.53450770      -0.90088148       1.54351604
H       -1.46087759       0.54046345       1.10722659
H        0.49739193       1.76094326       0.46063268
H        1.34014495       0.60581669       1.50894873
H        0.17371915       0.38594483      -1.91341462
12
Frame=12 idx=003031 GeodesicLength=1.4253273495176373 rxn_smarts="[O:1]=[C:2]([C:3]([C:4]([C:5](=[O:6])[H:12])([H:10])[H:11])([H:8])[H:9])[H:7]>>[O:1]([C@:2]1([H:7])[C:3]([H:8])([H:9])[C:4]([H:10])([H:11])[C:5]1=[O:6])[H:12]"
O       -1.08596685      -0.06805132      -1.67964120
C       -0.90962893      -0.67018568      -0.54213757
C       -0.62538753      -0.08763747       0.82187097
C        0.66343554       0.70030244       0.65929345
C        1.16361614       0.05850327      -0.62755253
O        2.07726565      -0.66763522      -0.86317535
H       -1.31667518      -1.68894202      -0.48227751
H       -0.54877499      -0.88964659       1.55723796
H       -1.46673407       0.55327665       1.10097571
H        0.50182535       1.76428186       0.47615405
H        1.34246117       0.59376931       1.50621007
H        0.20456370       0.40196477      -1.92695804
12
Frame=13 idx=003031 GeodesicLength=1.5453643514159854 rxn_smarts="[O:1]=[C:2]([C:3]([C:4]([C:5](=[O:6])[H:12])([H:10])[H:11])([H:8])[H:9])[H:7]>>[O:1]([C@:2]1([H:7])[C:3]([H:8])([H:9])[C:4]([H:10])([H:11])[C:5]1=[O:6])[H:12]"
O       -1.09315460      -0.07245433      -1.67548892
C       -0.89712424      -0.67186248      -0.53971508
C       -0.63332481      -0.08277116       0.82842999
C        0.66030125       0.69999837       0.66187972
C        1.14151781       0.06237390      -0.62887698
O        2.03388236      -0.68323660      -0.88663749
H       -1.26507515      -1.70601198      -0.47881627
H       -0.56267118      -0.87893647       1.57040145
H       -1.47217136       0.56550749       1.09511680
H        0.50624152       1.76702477       0.49087513
H        1.34443078       0.58182042       1.50298083
H        0.23714763       0.41854807      -1.94014918
12
Frame=14 idx=003031 GeodesicLength=1.6654247037729542 rxn_smarts="[O:1]=[C:2]([C:3]([C:4]([C:5](=[O:6])[H:12])([H:10])[H:11])([H:8])[H:9])[H:7]>>[O:1]([C@:2]1([H:7])[C:3]([H:8])([H:9])[C:4]([H:10])([H:11])[C:5]1=[O:6])[H:12]"
O       -1.10131093      -0.07792514      -1.67118938
C       -0.88529613      -0.67382230      -0.53717234
C       -0.64118328      -0.07832846       0.83473003
C        0.65710482       0.69937786       0.66388835
C        1.11949749       0.06573615      -0.63046628
O        1.99137132      -0.69727464      -0.90909093
H       -1.21515924      -1.72134207      -0.47447363
H       -0.57614814      -0.86873355       1.58304047
H       -1.47722100       0.57715177       1.08964363
H        0.51059774       1.76921770       0.50478601
H        1.34609008       0.57001142       1.49921639
H        0.27165727       0.43593125      -1.95291230
12
Frame=15 idx=003031 GeodesicLength=1.7854238701590177 rxn_smarts="[O:1]=[C:2]([C:3]([C:4]([C:5](=[O:6])[H:12])([H:10])[H:11])([H:8])[H:9])[H:7]>>[O:1]([C@:2]1([H:7])[C:3]([H:8])([H:9])[C:4]([H:10])([H:11])[C:5]1=[O:6])[H:12]"
O       -1.11051906      -0.08448201      -1.66670624
C       -0.87414012      -0.67608421      -0.53451189
C       -0.64896074      -0.07429246       0.84079053
C        0.65382773       0.69848468       0.66529524
C        1.09747846       0.06865081      -0.63238878
O        1.94966589      -0.70998655      -0.93056726
H       -1.16692682      -1.73512739      -0.46928536
H       -0.58916077      -0.85900787       1.59520179
H       -1.48192223       0.58821347       1.08457001
H        0.51484957       1.77091660       0.51787770
H        1.34747801       0.55838218       1.49487459
H        0.30833008       0.45433276      -1.96515033
12
Frame=16 idx=003031 GeodesicLength=1.9052819013070692 rxn_smarts="[O:1]=[C:2]([C:3]([C:4]([C:5](=[O:6])[H:12])([H:10])[H:11])([H:8])[H:9])[H:7]>>[O:1]([C@:2]1([H:7])[C:3]([H:8])([H:9])[C:4]([H:10])([H:11])[C:5]1=[O:6])[H:12]"
O       -1.12087582      -0.09214177      -1.66199565
C       -0.86365888      -0.67866844      -0.53173469
C       -0.65665497      -0.07065341       0.84663422
C        0.65044854       0.69735988       0.66607226
C        1.07537505       0.07117682      -0.63471122
O        1.90868469      -0.72157599      -0.95111258
H       -1.12038978      -1.74753704      -0.46327489
H       -0.60165984      -0.84974140       1.60693217
H       -1.48631678       0.59868887       1.07991587
H        0.51894702       1.77217080       0.53013203
H        1.34863347       0.54697535       1.48989960
H        0.34746730       0.47394634      -1.97675710
