14
Frame=0 idx=002383 GeodesicLength=0.0 rxn_smarts="[C:1]([C:2]([O:3][C:4]([C:5]#[C:6][H:14])([H:12])[H:13])([H:10])[H:11])([H:7])([H:8])[H:9]>>[C:1]([C:2]([O:3]/[C:4](=[C:5](\[C:6][H:14])[H:13])[H:12])([H:10])[H:11])([H:7])([H:8])[H:9]"
C        2.33318143       0.65284187      -0.13942604
C        1.24307984      -0.37513900       0.02488561
O       -0.01820845       0.30928057       0.03636782
C       -1.06543689      -0.37885803       0.45022863
C       -2.36423024      -0.00492213       0.14668770
C       -3.37033599       0.80623949       0.06069669
H        3.30524305       0.15839325      -0.16212500
H        2.20415423       1.20568355      -1.06981982
H        2.32243814       1.36043170       0.68969545
H        1.35488674      -0.92976420       0.96187833
H        1.23625372      -1.08888037      -0.80445828
H       -0.86580521      -1.31460461       0.97011331
H       -2.20006889      -1.03821210      -0.44931270
H       -4.11515152       0.63750996      -0.71541168
14
Frame=1 idx=002383 GeodesicLength=0.04554944721918511 rxn_smarts="[C:1]([C:2]([O:3][C:4]([C:5]#[C:6][H:14])([H:12])[H:13])([H:10])[H:11])([H:7])([H:8])[H:9]>>[C:1]([C:2]([O:3]/[C:4](=[C:5](\[C:6][H:14])[H:13])[H:12])([H:10])[H:11])([H:7])([H:8])[H:9]"
C        2.32790762       0.65641332      -0.14029776
C        1.24195799      -0.37562864       0.02705860
O       -0.02134926       0.30358699       0.03766912
C       -1.06711003      -0.39636660       0.43978040
C       -2.36807958      -0.01474420       0.15134269
C       -3.34793436       0.82538731       0.04832253
H        3.30216430       0.16621695      -0.16163995
H        2.19628566       1.20624967      -1.07212615
H        2.31406973       1.36633693       0.68679631
H        1.35756698      -0.92749700       0.96539361
H        1.23858456      -1.09196229      -0.80027010
H       -0.86591007      -1.32249386       0.97618557
H       -2.19163121      -1.05483527      -0.45379611
H       -4.11652231       0.65933668      -0.70441876
14
Frame=2 idx=002383 GeodesicLength=0.09113704029299764 rxn_smarts="[C:1]([C:2]([O:3][C:4]([C:5]#[C:6][H:14])([H:12])[H:13])([H:10])[H:11])([H:7])([H:8])[H:9]>>[C:1]([C:2]([O:3]/[C:4](=[C:5](\[C:6][H:14])[H:13])[H:12])([H:10])[H:11])([H:7])([H:8])[H:9]"
C        2.32256731       0.65999625      -0.14117500
C        1.24086158      -0.37614357       0.02938472
O       -0.02453760       0.29768944       0.03821940
C       -1.06880099      -0.41385137       0.42853855
C       -2.37168953      -0.02458159       0.15446994
C       -3.32594866       0.84228281       0.03775035
H        3.29907895       0.17419709      -0.16045263
H        2.18868891       1.20623321      -1.07482281
H        2.30515675       1.37273998       0.68344953
H        1.35990474      -0.92465372       0.96944150
H        1.24139409      -1.09553741      -0.79550284
H       -0.86629953      -1.32969846       0.98206996
H       -2.18300706      -1.07215694      -0.45899096
H       -4.11736896       0.68348427      -0.69237971
14
Frame=3 idx=002383 GeodesicLength=0.13672377972473704 rxn_smarts="[C:1]([C:2]([O:3][C:4]([C:5]#[C:6][H:14])([H:12])[H:13])([H:10])[H:11])([H:7])([H:8])[H:9]>>[C:1]([C:2]([O:3]/[C:4](=[C:5](\[C:6][H:14])[H:13])[H:12])([H:10])[H:11])([H:7])([H:8])[H:9]"
C        2.31814996       0.66301858      -0.14146241
C        1.24014354      -0.37664437       0.03197179
O       -0.02706873       0.29228768       0.03739848
C       -1.07038549      -0.42999829       0.41542263
C       -2.37460372      -0.03271501       0.15388060
C       -3.30321608       0.85933262       0.02447724
H        3.29672912       0.18125325      -0.15743182
H        2.18312482       1.20506914      -1.07739231
H        2.29663679       1.37910553       0.68016800
H        1.36145915      -0.92117816       0.97421397
H        1.24508275      -1.09960738      -0.78996526
H       -0.86763387      -1.33491598       0.98684035
H       -2.17363388      -1.08872182      -0.46659952
H       -4.12478435       0.70371422      -0.67152173
14
Frame=4 idx=002383 GeodesicLength=0.18232467034046107 rxn_smarts="[C:1]([C:2]([O:3][C:4]([C:5]#[C:6][H:14])([H:12])[H:13])([H:10])[H:11])([H:7])([H:8])[H:9]>>[C:1]([C:2]([O:3]/[C:4](=[C:5](\[C:6][H:14])[H:13])[H:12])([H:10])[H:11])([H:7])([H:8])[H:9]"
C        2.31312553       0.66633835      -0.14206198
C        1.23921617      -0.37716841       0.03463026
O       -0.03003377       0.28636972       0.03637643
C       -1.07202520      -0.44677189       0.40242926
C       -2.37754138      -0.04178911       0.15315277
C       -3.28151109       0.87346443       0.01440130
H        3.29393295       0.18899780      -0.15450400
H        2.17680659       1.20376846      -1.08048391
H        2.28718762       1.38606234       0.67627212
H        1.36292346      -0.91728697       0.97927386
H        1.24885955      -1.10398775      -0.78405778
H       -0.86891178      -1.34023931       0.99181503
H       -2.16417507      -1.10668881      -0.47390298
H       -4.12785359       0.72893116      -0.65334037
14
Frame=5 idx=002383 GeodesicLength=0.22792567252158644 rxn_smarts="[C:1]([C:2]([O:3][C:4]([C:5]#[C:6][H:14])([H:12])[H:13])([H:10])[H:11])([H:7])([H:8])[H:9]>>[C:1]([C:2]([O:3]/[C:4](=[C:5](\[C:6][H:14])[H:13])[H:12])([H:10])[H:11])([H:7])([H:8])[H:9]"
C        2.30781347       0.66973499      -0.14279519
C        1.23813177      -0.37767295       0.03734150
O       -0.03321475       0.28028020       0.03515919
C       -1.07369143      -0.46361961       0.38944351
C       -2.38037694      -0.05120032       0.15171495
C       -3.26055345       0.88557848       0.00618221
H        3.29088399       0.19696797      -0.15152250
H        2.17023757       1.20227713      -1.08383457
H        2.27727331       1.39325975       0.67203725
H        1.36416727      -0.91309424       0.98452113
H        1.25263636      -1.10851332      -0.77788846
H       -0.87034048      -1.34516806       0.99683821
H       -2.15435263      -1.12552069      -0.48130263
H       -4.12861405       0.75669067      -0.63589459
14
Frame=6 idx=002383 GeodesicLength=0.27351397024300483 rxn_smarts="[C:1]([C:2]([O:3][C:4]([C:5]#[C:6][H:14])([H:12])[H:13])([H:10])[H:11])([H:7])([H:8])[H:9]>>[C:1]([C:2]([O:3]/[C:4](=[C:5](\[C:6][H:14])[H:13])[H:12])([H:10])[H:11])([H:7])([H:8])[H:9]"
C        2.30241165       0.67307232      -0.14356551
C        1.23689408      -0.37812346       0.04005523
O       -0.03648932       0.27428908       0.03390571
C       -1.07537147      -0.48015759       0.37658217
C       -2.38306528      -0.06060866       0.14931368
C       -3.24020812       0.89620840      -0.00116619
H        3.28768684       0.20483561      -0.14857266
H        2.16365415       1.20069649      -1.08721711
H        2.26729452       1.40038137       0.66772318
H        1.36515782      -0.90879120       0.98978118
H        1.25622142      -1.11298329      -0.77165596
H       -0.87203381      -1.34935923       1.00198178
H       -2.14392793      -1.14495520      -0.48885953
H       -4.12822455       0.78549537      -0.61830597
14
Frame=7 idx=002383 GeodesicLength=0.3190752098378508 rxn_smarts="[C:1]([C:2]([O:3][C:4]([C:5]#[C:6][H:14])([H:12])[H:13])([H:10])[H:11])([H:7])([H:8])[H:9]>>[C:1]([C:2]([O:3]/[C:4](=[C:5](\[C:6][H:14])[H:13])[H:12])([H:10])[H:11])([H:7])([H:8])[H:9]"
C        2.29690894       0.67632495      -0.14438041
C        1.23543462      -0.37849342       0.04268599
O       -0.03987166       0.26852717       0.03292959
C       -1.07706647      -0.49625487       0.36419837
C       -2.38563568      -0.06998916       0.14617558
C       -3.22052227       0.90546566      -0.00780769
H        3.28428328       0.21248513      -0.14598927
H        2.15690332       1.19927294      -1.09046505
H        2.25747450       1.40717681       0.66353485
H        1.36597156      -0.90461373       0.99480104
H        1.25932107      -1.11716068      -0.76564231
H       -0.87395831      -1.35274086       1.00747755
H       -2.13277327      -1.16498574      -0.49625766
H       -4.12646964       0.81498579      -0.60126057
14
Frame=8 idx=002383 GeodesicLength=0.36461653311438924 rxn_smarts="[C:1]([C:2]([O:3][C:4]([C:5]#[C:6][H:14])([H:12])[H:13])([H:10])[H:11])([H:7])([H:8])[H:9]>>[C:1]([C:2]([O:3]/[C:4](=[C:5](\[C:6][H:14])[H:13])[H:12])([H:10])[H:11])([H:7])([H:8])[H:9]"
C        2.29173059       0.67929643      -0.14501745
C        1.23398959      -0.37880725       0.04542894
O       -0.04306768       0.26308843       0.03150832
C       -1.07872837      -0.51155847       0.35146475
C       -2.38792234      -0.07875025       0.14105942
C       -3.20101291       0.91424467      -0.01577361
H        3.28106736       0.21963199      -0.14281831
H        2.15093088       1.19736604      -1.09368290
H        2.24788638       1.41385520       0.65931727
H        1.36633413      -0.90016173       1.00008469
H        1.26250135      -1.12144921      -0.75930204
H       -0.87645233      -1.35494915       1.01261684
H       -2.12069964      -1.18512315      -0.50453866
H       -4.12655699       0.84331645      -0.58034724
14
Frame=9 idx=002383 GeodesicLength=0.41013028326658035 rxn_smarts="[C:1]([C:2]([O:3][C:4]([C:5]#[C:6][H:14])([H:12])[H:13])([H:10])[H:11])([H:7])([H:8])[H:9]>>[C:1]([C:2]([O:3]/[C:4](=[C:5](\[C:6][H:14])[H:13])[H:12])([H:10])[H:11])([H:7])([H:8])[H:9]"
C        2.28634439       0.68225837      -0.14574842
C        1.23230265      -0.37905037       0.04810641
O       -0.04644737       0.25777158       0.03037618
C       -1.08041945      -0.52659944       0.33932352
C       -2.39019261      -0.08767388       0.13549036
C       -3.18220167       0.92175425      -0.02271871
H        3.27758131       0.22671289      -0.14004569
H        2.14462769       1.19562891      -1.09684567
H        2.23829851       1.42033419       0.65513771
H        1.36656602      -0.89579778       1.00516656
H        1.26521973      -1.12549505      -0.75313587
H       -0.87914139      -1.35669194       1.01795482
H       -2.10790363      -1.20587884      -0.51257935
H       -4.12463417       0.87272712      -0.56048185
14
Frame=10 idx=002383 GeodesicLength=0.4556131806403732 rxn_smarts="[C:1]([C:2]([O:3][C:4]([C:5]#[C:6][H:14])([H:12])[H:13])([H:10])[H:11])([H:7])([H:8])[H:9]>>[C:1]([C:2]([O:3]/[C:4](=[C:5](\[C:6][H:14])[H:13])[H:12])([H:10])[H:11])([H:7])([H:8])[H:9]"
C        2.28087764       0.68513963      -0.14651204
C        1.23038748      -0.37920797       0.05067435
O       -0.04994531       0.25272397       0.02960478
C       -1.08214283      -0.54116418       0.32782568
C       -2.39244417      -0.09659456       0.12931823
C       -3.16404546       0.92830315      -0.02933674
H        3.27390970       0.23354151      -0.13772435
H        2.13813115       1.19415066      -1.09981294
H        2.22895807       1.42642770       0.65117464
H        1.36667550      -0.89165627       1.00992790
H        1.26738099      -1.12918357      -0.74729018
H       -0.88208768      -1.35776781       1.02359381
H       -2.09425340      -1.22716544      -0.52031334
H       -4.12140167       0.90245318      -0.54112980
14
Frame=11 idx=002383 GeodesicLength=0.5010097670831127 rxn_smarts="[C:1]([C:2]([O:3][C:4]([C:5]#[C:6][H:14])([H:12])[H:13])([H:10])[H:11])([H:7])([H:8])[H:9]>>[C:1]([C:2]([O:3]/[C:4](=[C:5](\[C:6][H:14])[H:13])[H:12])([H:10])[H:11])([H:7])([H:8])[H:9]"
C        2.27536575       0.68790276      -0.14729083
C        1.22821361      -0.37927062       0.05304846
O       -0.05354172       0.24807564       0.02939126
C       -1.08390635      -0.55511163       0.31716079
C       -2.39465810      -0.10533172       0.12262082
C       -3.14661455       0.93382752      -0.03563266
H        3.27004716       0.23997630      -0.13608808
H        2.13138290       1.19314042      -1.10242553
H        2.22009060       1.43192041       0.64764124
H        1.36672126      -0.88794981       1.01415670
H        1.26878198      -1.13235099      -0.74202011
H       -0.88528207      -1.35799931       1.02971894
H       -2.07972607      -1.24888940      -0.52745234
H       -4.11687440       0.93206043      -0.52282868
14
Frame=12 idx=002383 GeodesicLength=0.5463864469910928 rxn_smarts="[C:1]([C:2]([O:3][C:4]([C:5]#[C:6][H:14])([H:12])[H:13])([H:10])[H:11])([H:7])([H:8])[H:9]>>[C:1]([C:2]([O:3]/[C:4](=[C:5](\[C:6][H:14])[H:13])[H:12])([H:10])[H:11])([H:7])([H:8])[H:9]"
C        2.26992366       0.69052168      -0.14802059
C        1.22590476      -0.37926465       0.05538243
O       -0.05715314       0.24371424       0.02923214
C       -1.08568596      -0.56849054       0.30681291
C       -2.39680900      -0.11385704       0.11486336
C       -3.12965071       0.93873602      -0.04257318
H        3.26614694       0.24606684      -0.13453227
H        2.12477762       1.19215430      -1.10489407
H        2.21148030       1.43713246       0.64426741
H        1.36655712      -0.88431393       1.01826211
H        1.26985666      -1.13534054      -0.73686831
H       -0.88887133      -1.35743864       1.03588927
H       -2.06427758      -1.27100204      -0.53454447
H       -4.11219934       0.96138186      -0.50327674
14
Frame=13 idx=002383 GeodesicLength=0.5917380834135857 rxn_smarts="[C:1]([C:2]([O:3][C:4]([C:5]#[C:6][H:14])([H:12])[H:13])([H:10])[H:11])([H:7])([H:8])[H:9]>>[C:1]([C:2]([O:3]/[C:4](=[C:5](\[C:6][H:14])[H:13])[H:12])([H:10])[H:11])([H:7])([H:8])[H:9]"
C        2.26459366       0.69298665      -0.14867868
C        1.22351477      -0.37920250       0.05776804
O       -0.06074577       0.23956204       0.02881914
C       -1.08748199      -0.58135711       0.29645679
C       -2.39887109      -0.12213821       0.10570534
C       -3.11303497       0.94317657      -0.05048725
H        3.26227236       0.25186106      -0.13271220
H        2.11852346       1.19091871      -1.10735673
H        2.20297305       1.44226306       0.64086330
H        1.36607061      -0.88050789       1.02249076
H        1.27084882      -1.13836169      -0.73154222
H       -0.89295348      -1.35609206       1.04184440
H       -2.04791578      -1.29346976      -0.54187614
H       -4.10779364       0.99036113      -0.48129456
14
Frame=14 idx=002383 GeodesicLength=0.6370835117084258 rxn_smarts="[C:1]([C:2]([O:3][C:4]([C:5]#[C:6][H:14])([H:12])[H:13])([H:10])[H:11])([H:7])([H:8])[H:9]>>[C:1]([C:2]([O:3]/[C:4](=[C:5](\[C:6][H:14])[H:13])[H:12])([H:10])[H:11])([H:7])([H:8])[H:9]"
C        2.25905731       0.69547693      -0.14941624
C        1.22093583      -0.37909486       0.06013252
O       -0.06452385       0.23542935       0.02845876
C       -1.08933535      -0.59409645       0.28645214
C       -2.40098068      -0.13053786       0.09615057
C       -3.09700797       0.94692927      -0.05714057
H        3.25817818       0.25768801      -0.13105840
H        2.11201527       1.18972095      -1.10986727
H        2.19430353       1.44738045       0.63738952
H        1.36543301      -0.87665771       1.02667086
H        1.27159736      -1.14130549      -0.72623574
H       -0.89727988      -1.35461705       1.04761671
H       -2.03091072      -1.31636029      -0.54900256
H       -4.10148204       1.02004475      -0.46015027
14
Frame=15 idx=002383 GeodesicLength=0.6824360695417427 rxn_smarts="[C:1]([C:2]([O:3][C:4]([C:5]#[C:6][H:14])([H:12])[H:13])([H:10])[H:11])([H:7])([H:8])[H:9]>>[C:1]([C:2]([O:3]/[C:4](=[C:5](\[C:6][H:14])[H:13])[H:12])([H:10])[H:11])([H:7])([H:8])[H:9]"
C        2.25334441       0.69798692      -0.15022468
C        1.21820953      -0.37895119       0.06255329
O       -0.06845797       0.23125306       0.02791608
C       -1.09124770      -0.60675861       0.27653885
C       -2.40311537      -0.13901162       0.08599137
C       -3.08146567       0.95013001      -0.06259700
H        3.25391092       0.26359812      -0.12928955
H        2.10542005       1.18832667      -1.11255700
H        2.18533509       1.45266045       0.63366945
H        1.36455330      -0.87256412       1.03100771
H        1.27229221      -1.14434384      -0.72070542
H       -0.90190785      -1.35307516       1.05296373
H       -2.01329617      -1.33960943      -0.55617077
H       -4.09357478       1.05035875      -0.43909606
14
Frame=16 idx=002383 GeodesicLength=0.7277850589142295 rxn_smarts="[C:1]([C:2]([O:3][C:4]([C:5]#[C:6][H:14])([H:12])[H:13])([H:10])[H:11])([H:7])([H:8])[H:9]>>[C:1]([C:2]([O:3]/[C:4](=[C:5](\[C:6][H:14])[H:13])[H:12])([H:10])[H:11])([H:7])([H:8])[H:9]"
C        2.24779176       0.70032246      -0.15095502
C        1.21549182      -0.37876306       0.06526308
O       -0.07233019       0.22710597       0.02640923
C       -1.09318988      -0.61905761       0.26587306
C       -2.40511182      -0.14719496       0.07367251
C       -3.06606247       0.95311751      -0.06954751
H        3.24976759       0.26935014      -0.12646584
H        2.09962125       1.18598079      -1.11563188
H        2.17603208       1.45836451       0.62936013
H        1.36304444      -0.86766050       1.03608735
H        1.27345082      -1.14791437      -0.71423602
H       -0.90723647      -1.35083419       1.05747524
H       -1.99477048      -1.36317355      -0.56420591
H       -4.08649844       1.08035687      -0.41309842
