13
Frame=0 idx=003972 GeodesicLength=0.0 rxn_smarts="[C:1]([C@@:2]1([H:9])[C:3]([H:10])([H:11])[C@:4]1([O:5][H:13])[H:12])([H:6])([H:7])[H:8]>>[C:1]([C:2]([C:3]([C:4][O:5][H:13])([H:10])[H:11])([H:9])[H:12])([H:6])([H:7])[H:8]"
C        1.10862597       0.59149096      -0.78953593
C       -0.21757393      -0.10791826      -0.74392522
C       -0.43965580      -1.22973410       0.21412954
C       -1.15658120      -0.09316082       0.89493771
O       -0.31365526       0.47546555       1.82053485
H        1.42945434       0.85240701       0.22130644
H        1.06028097       1.50479543      -1.38453490
H        1.87453907      -0.05567341      -1.22341767
H       -0.77041783      -0.17930944      -1.67735467
H        0.44924674      -1.56769146       0.73979417
H       -1.06319707      -2.04954310      -0.12438969
H       -1.17552934       0.64669655      -0.15975822
H       -0.78553665       1.21217505       2.21221360
13
Frame=1 idx=003972 GeodesicLength=0.0533633061957263 rxn_smarts="[C:1]([C@@:2]1([H:9])[C:3]([H:10])([H:11])[C@:4]1([O:5][H:13])[H:12])([H:6])([H:7])[H:8]>>[C:1]([C:2]([C:3]([C:4][O:5][H:13])([H:10])[H:11])([H:9])[H:12])([H:6])([H:7])[H:8]"
C        1.10974353       0.59298332      -0.79284435
C       -0.21868733      -0.10362546      -0.74556414
C       -0.43746188      -1.22597500       0.21445006
C       -1.14943500      -0.08924045       0.89658345
O       -0.31910744       0.46305452       1.84022987
H        1.43098342       0.85986235       0.21623035
H        1.06461505       1.50289472      -1.39340118
H        1.87535466      -0.05780488      -1.22184733
H       -0.75903800      -0.19035192      -1.68499209
H        0.45185376      -1.56862321       0.73646324
H       -1.07088430      -2.04118860      -0.11784506
H       -1.19249245       0.65073982      -0.17211212
H       -0.78544402       1.20727479       2.22464928
13
Frame=2 idx=003972 GeodesicLength=0.10671371726065532 rxn_smarts="[C:1]([C@@:2]1([H:9])[C:3]([H:10])([H:11])[C@:4]1([O:5][H:13])[H:12])([H:6])([H:7])[H:8]>>[C:1]([C:2]([C:3]([C:4][O:5][H:13])([H:10])[H:11])([H:9])[H:12])([H:6])([H:7])[H:8]"
C        1.11083981       0.59455794      -0.79615302
C       -0.21981989      -0.09928745      -0.74732648
C       -0.43534998      -1.22205697       0.21480409
C       -1.14205861      -0.08485841       0.89813179
O       -0.32496152       0.44999717       1.86025723
H        1.43247815       0.86740756       0.21111736
H        1.06891462       1.50103619      -1.40224005
H        1.87618218      -0.05980764      -1.22020177
H       -0.74729126      -0.20157907      -1.69251597
H        0.45434575      -1.56947827       0.73310046
H       -1.07866942      -2.03256246      -0.11109074
H       -1.20993859       0.65424554      -0.18497420
H       -0.78467123       1.20238589       2.23709130
13
Frame=3 idx=003972 GeodesicLength=0.1600492495288125 rxn_smarts="[C:1]([C@@:2]1([H:9])[C:3]([H:10])([H:11])[C@:4]1([O:5][H:13])[H:12])([H:6])([H:7])[H:8]>>[C:1]([C:2]([C:3]([C:4][O:5][H:13])([H:10])[H:11])([H:9])[H:12])([H:6])([H:7])[H:8]"
C        1.11191936       0.59621532      -0.79947147
C       -0.22096944      -0.09490308      -0.74922661
C       -0.43332349      -1.21796298       0.21519622
C       -1.13443720      -0.07997899       0.89957202
O       -0.33129091       0.43627924       1.88060113
H        1.43393637       0.87505545       0.20595654
H        1.07318925       1.49921254      -1.41107282
H        1.87702784      -0.06168674      -1.21847643
H       -0.73517499      -0.21298578      -1.69991556
H        0.45671384      -1.57023532       0.72971909
H       -1.08654883      -2.02364100      -0.10410997
H       -1.22787044       0.65717060      -0.19836655
H       -0.78317137       1.19746073       2.24959442
13
Frame=4 idx=003972 GeodesicLength=0.21337191428670205 rxn_smarts="[C:1]([C@@:2]1([H:9])[C:3]([H:10])([H:11])[C@:4]1([O:5][H:13])[H:12])([H:6])([H:7])[H:8]>>[C:1]([C:2]([C:3]([C:4][O:5][H:13])([H:10])[H:11])([H:9])[H:12])([H:6])([H:7])[H:8]"
C        1.11298828       0.59795510      -0.80281327
C       -0.22213280      -0.09047031      -0.75127865
C       -0.43138361      -1.21367438       0.21563179
C       -1.12655128      -0.07456524       0.90089568
O       -0.33818477       0.42188885       1.90124032
H        1.43535864       0.88281889       0.20073194
H        1.07744986       1.49741451      -1.41992639
H        1.87789840      -0.06345022      -1.21667055
H       -0.72268706      -0.22456839      -1.70717943
H        0.45895096      -1.57087093       0.72633439
H       -1.09451869      -2.01439717      -0.09688731
H       -1.24628467       0.65947500      -0.21230195
H       -0.78090327       1.19244430       2.26222343
13
Frame=5 idx=003972 GeodesicLength=0.2666791522443356 rxn_smarts="[C:1]([C@@:2]1([H:9])[C:3]([H:10])([H:11])[C@:4]1([O:5][H:13])[H:12])([H:6])([H:7])[H:8]>>[C:1]([C:2]([C:3]([C:4][O:5][H:13])([H:10])[H:11])([H:9])[H:12])([H:6])([H:7])[H:8]"
C        1.11405586       0.59977487      -0.80619346
C       -0.22330403      -0.08598753      -0.75349442
C       -0.42952618      -1.20917311       0.21611772
C       -1.11838168      -0.06858495       0.90209473
O       -0.34573522       0.40682097       1.92215039
H        1.43675235       0.89070842       0.19542491
H        1.08171024       1.49563070      -1.42882732
H        1.87880047      -0.06510714      -1.21478873
H       -0.70984081      -0.23630991      -1.71429385
H        0.46105530      -1.57136006       0.72296632
H       -1.10257727      -2.00480851      -0.08940788
H       -1.26516908       0.66111800      -0.22678630
H       -0.77783996       1.18727825       2.27503790
13
Frame=6 idx=003972 GeodesicLength=0.31997378929479486 rxn_smarts="[C:1]([C@@:2]1([H:9])[C:3]([H:10])([H:11])[C@:4]1([O:5][H:13])[H:12])([H:6])([H:7])[H:8]>>[C:1]([C:2]([C:3]([C:4][O:5][H:13])([H:10])[H:11])([H:9])[H:12])([H:6])([H:7])[H:8]"
C        1.11513183       0.60166991      -0.80963319
C       -0.22447909      -0.08145062      -0.75588580
C       -0.42774676      -1.20443957       0.21665999
C       -1.10990300      -0.06200614       0.90316631
O       -0.35404814       0.39107503       1.94329609
H        1.43812863       0.89873236       0.19000906
H        1.08598547       1.49384630      -1.43781025
H        1.87973879      -0.06667297      -1.21284129
H       -0.69664587      -0.24819908      -1.72123869
H        0.46302563      -1.57167637       0.71963311
H       -1.11071317      -1.99484646      -0.08165915
H       -1.28450116       0.66207165      -0.24180951
H       -0.77397317       1.18189596       2.28811333
13
Frame=7 idx=003972 GeodesicLength=0.3732539817577625 rxn_smarts="[C:1]([C@@:2]1([H:9])[C:3]([H:10])([H:11])[C@:4]1([O:5][H:13])[H:12])([H:6])([H:7])[H:8]>>[C:1]([C:2]([C:3]([C:4][O:5][H:13])([H:10])[H:11])([H:9])[H:12])([H:6])([H:7])[H:8]"
C        1.11622773       0.60363369      -0.81315541
C       -0.22565442      -0.07685301      -0.75846144
C       -0.42603838      -1.19945484       0.21726441
C       -1.10108938      -0.05480149       0.90411066
O       -0.36323701       0.37465734       1.96463896
H        1.43950551       0.90689445       0.18445509
H        1.09029312       1.49204533      -1.44690941
H        1.88071504      -0.06816546      -1.21084638
H       -0.68312016      -0.26021501      -1.72799331
H        0.46486386      -1.57179109       0.71635470
H       -1.11891015      -1.98448550      -0.07362470
H       -1.30424857       0.66231009      -0.25735300
H       -0.76930720       1.17622551       2.30151981
13
Frame=8 idx=003972 GeodesicLength=0.4265203216035426 rxn_smarts="[C:1]([C@@:2]1([H:9])[C:3]([H:10])([H:11])[C@:4]1([O:5][H:13])[H:12])([H:6])([H:7])[H:8]>>[C:1]([C:2]([C:3]([C:4][O:5][H:13])([H:10])[H:11])([H:9])[H:12])([H:6])([H:7])[H:8]"
C        1.11735696       0.60565891      -0.81678553
C       -0.22682385      -0.07218848      -0.76122767
C       -0.42438771      -1.19419920       0.21793986
C       -1.09191090      -0.04694677       0.90493119
O       -0.37343383       0.35757605       1.98613076
H        1.44090515       0.91519946       0.17872961
H        1.09465057       1.49020997      -1.45616268
H        1.88173186      -0.06960297      -1.20882497
H       -0.66928942      -0.27233534      -1.73453406
H        0.46657762      -1.57167411       0.71315688
H       -1.12715604      -1.97370180      -0.06529617
H       -1.32437339       0.66181141      -0.27338649
H       -0.76384702       1.17019289       2.31532927
13
Frame=9 idx=003972 GeodesicLength=0.47977396016263574 rxn_smarts="[C:1]([C@@:2]1([H:9])[C:3]([H:10])([H:11])[C@:4]1([O:5][H:13])[H:12])([H:6])([H:7])[H:8]>>[C:1]([C:2]([C:3]([C:4][O:5][H:13])([H:10])[H:11])([H:9])[H:12])([H:6])([H:7])[H:8]"
C        1.11853346       0.60774169      -0.82054643
C       -0.22798094      -0.06745134      -0.76418880
C       -0.42277723      -1.18865553       0.21869450
C       -1.08232855      -0.03842579       0.90563477
O       -0.38482840       0.33982090       2.00772179
H        1.44235579       0.92364529       0.17280338
H        1.09907044       1.48833228      -1.46559503
H        1.88279095      -0.07099681      -1.20680542
H       -0.65518608      -0.28453214      -1.74083188
H        0.46817964      -1.57129585       0.71006684
H       -1.13544009      -1.96246305      -0.05665646
H       -1.34483505       0.66053862      -0.28986945
H       -0.75755394       1.16374172       2.32957219
13
Frame=10 idx=003972 GeodesicLength=0.5330184218306029 rxn_smarts="[C:1]([C@@:2]1([H:9])[C:3]([H:10])([H:11])[C@:4]1([O:5][H:13])[H:12])([H:6])([H:7])[H:8]>>[C:1]([C:2]([C:3]([C:4][O:5][H:13])([H:10])[H:11])([H:9])[H:12])([H:6])([H:7])[H:8]"
C        1.11977430       0.60986468      -0.82447393
C       -0.22911952      -0.06263213      -0.76734406
C       -0.42118851      -1.18280801       0.21953615
C       -1.07231176      -0.02922727       0.90623486
O       -0.39753404       0.32144255       2.02934205
H        1.44389610       0.93222632       0.16662735
H        1.10357725       1.48638182      -1.47525756
H        1.88388945      -0.07238172      -1.20482608
H       -0.64085417      -0.29676821      -1.74685833
H        0.46968474      -1.57062298       0.70711344
H       -1.14372198      -1.95075815      -0.04770169
H       -1.36557496       0.65851511      -0.30673646
H       -0.75051689       1.15676799       2.34434427
13
Frame=11 idx=003972 GeodesicLength=0.5862520060900327 rxn_smarts="[C:1]([C@@:2]1([H:9])[C:3]([H:10])([H:11])[C@:4]1([O:5][H:13])[H:12])([H:6])([H:7])[H:8]>>[C:1]([C:2]([C:3]([C:4][O:5][H:13])([H:10])[H:11])([H:9])[H:12])([H:6])([H:7])[H:8]"
C        1.12109582       0.61201707      -0.82859815
C       -0.23023375      -0.05772026      -0.77068732
C       -0.41959734      -1.17664121       0.22047539
C       -1.06182224      -0.01934603       0.90674893
O       -0.41172000       0.30247039       2.05092264
H        1.44556838       0.94093487       0.16015975
H        1.10818652       1.48434075      -1.48518564
H        1.88502337      -0.07378099      -1.20292854
H       -0.62634031      -0.30900828      -1.75258325
H        0.47111364      -1.56962259       0.70433016
H       -1.15197625      -1.93856803      -0.03842466
H       -1.38653471       0.65573974      -0.32392254
H       -0.74276315       1.14918460       2.35969325
13
Frame=12 idx=003972 GeodesicLength=0.6394810173343518 rxn_smarts="[C:1]([C@@:2]1([H:9])[C:3]([H:10])([H:11])[C@:4]1([O:5][H:13])[H:12])([H:6])([H:7])[H:8]>>[C:1]([C:2]([C:3]([C:4][O:5][H:13])([H:10])[H:11])([H:9])[H:12])([H:6])([H:7])[H:8]"
C        1.12251470       0.61418582      -0.83295336
C       -0.23131689      -0.05270504      -0.77421076
C       -0.41797636      -1.17014024       0.22152361
C       -1.05081783      -0.00877991       0.90719899
O       -0.42757696       0.28295149       2.07237691
H        1.44741828       0.94976276       0.15335232
H        1.11291365       1.48218634      -1.49542189
H        1.88618863      -0.07522142      -1.20115818
H       -0.61169217      -0.32121737      -1.75797426
H        0.47248997      -1.56825853       0.70175558
H       -1.16016722      -1.92587730      -0.02882104
H       -1.40765553       0.65222809      -0.34134942
H       -0.73432227       1.14088530       2.37568152
13
Frame=13 idx=003972 GeodesicLength=0.6927005810506758 rxn_smarts="[C:1]([C@@:2]1([H:9])[C:3]([H:10])([H:11])[C@:4]1([O:5][H:13])[H:12])([H:6])([H:7])[H:8]>>[C:1]([C:2]([C:3]([C:4][O:5][H:13])([H:10])[H:11])([H:9])[H:12])([H:6])([H:7])[H:8]"
C        1.12404754       0.61635696      -0.83757363
C       -0.23236164      -0.04757465      -0.77790139
C       -0.41629490      -1.16329185       0.22269311
C       -1.03925576       0.00246559       0.90761075
O       -0.44530151       0.26294198       2.09360935
H        1.44949720       0.95869815       0.14615656
H        1.11777149       1.47989646      -1.50600529
H        1.88737879      -0.07673022      -1.19956527
H       -0.59696596      -0.33335327      -1.76299933
H        0.47384240      -1.56649263       0.69943143
H       -1.16825584      -1.91267148      -0.01888284
H       -1.42887350       0.64799792      -0.35893137
H       -0.72522831       1.13175702       2.39235793
13
Frame=14 idx=003972 GeodesicLength=0.7459171182060174 rxn_smarts="[C:1]([C@@:2]1([H:9])[C:3]([H:10])([H:11])[C@:4]1([O:5][H:13])[H:12])([H:6])([H:7])[H:8]>>[C:1]([C:2]([C:3]([C:4][O:5][H:13])([H:10])[H:11])([H:9])[H:12])([H:6])([H:7])[H:8]"
C        1.12571191       0.61851593      -0.84249617
C       -0.23336046      -0.04231706      -0.78174374
C       -0.41451797      -1.15608072       0.22400019
C       -1.02708721       0.01438643       0.90801520
O       -0.46510830       0.24251716       2.11450288
H        1.45185597       0.96773263       0.13851688
H        1.12277199       1.47744366      -1.51698403
H        1.88858768      -0.07833593      -1.19820140
H       -0.58221671      -0.34537974      -1.76762416
H        0.47520198      -1.56428178       0.69740727
H       -1.17619905      -1.89894003      -0.00860588
H       -1.45012656       0.64308223      -0.37657791
H       -0.71551327       1.12165721       2.40979088
13
Frame=15 idx=003972 GeodesicLength=0.7991248118908911 rxn_smarts="[C:1]([C@@:2]1([H:9])[C:3]([H:10])([H:11])[C@:4]1([O:5][H:13])[H:12])([H:6])([H:7])[H:8]>>[C:1]([C:2]([C:3]([C:4][O:5][H:13])([H:10])[H:11])([H:9])[H:12])([H:6])([H:7])[H:8]"
C        1.12752338       0.62064790      -0.84775828
C       -0.23430522      -0.03692034      -0.78571882
C       -0.41260833      -1.14849100       0.22546272
C       -1.01426304       0.02697626       0.90844503
O       -0.48722942       0.22177342       2.13492228
H        1.45454611       0.97685898       0.13037643
H        1.12792294       1.47479769      -1.52840620
H        1.88980746      -0.08006676      -1.19711801
H       -0.56750286      -0.35725788      -1.77181566
H        0.47660332      -1.56157739       0.69573900
H       -1.18394881      -1.88467176       0.00201907
H       -1.47135007       0.63751477      -0.39419720
H       -0.70519546       1.11041609       2.42804963
13
Frame=16 idx=003972 GeodesicLength=0.8523365012932421 rxn_smarts="[C:1]([C@@:2]1([H:9])[C:3]([H:10])([H:11])[C@:4]1([O:5][H:13])[H:12])([H:6])([H:7])[H:8]>>[C:1]([C:2]([C:3]([C:4][O:5][H:13])([H:10])[H:11])([H:9])[H:12])([H:6])([H:7])[H:8]"
C        1.12949393       0.62274058      -0.85339141
C       -0.23518892      -0.03137498      -0.78980044
C       -0.41052583      -1.14051170       0.22710282
C       -1.00073706       0.04021779       0.90893872
O       -0.51193006       0.20082541       2.15471016
H        1.45761910       0.98607076       0.12168484
H        1.13322530       1.47193470      -1.54031117
H        1.89102916      -0.08194622      -1.19636374
H       -0.55288783      -0.36895333      -1.77554169
H        0.47808433      -1.55832881       0.69449390
H       -1.19144940      -1.86986452       0.01299798
H       -1.49248861       0.63134211      -0.41169752
H       -0.69424411       1.09784820       2.44717756
