13
Frame=0 idx=002925 GeodesicLength=0.0 rxn_smarts="[C:1]([C:2]1=[N:3][C:4]([H:10])([H:11])[C:5]([H:12])([H:13])[O:6]1)([H:7])([H:8])[H:9]>>[C:1]([C:2]1=[O+:6][C:5]([H:12])([H:13])[C-:4]([H:10])[N:3]1[H:11])([H:7])([H:8])[H:9]"
C        2.05923678      -0.13449484       0.06310853
C        0.58963083       0.02234050       0.08899139
N       -0.09376275       1.09752618      -0.08167937
C       -1.52600778       0.76690535      -0.18952114
C       -1.55007527      -0.73403244       0.04793760
O       -0.15392962      -1.05785644       0.35243927
H        2.39709281      -0.59810418       0.99183479
H        2.53461544       0.83671370      -0.05086846
H        2.36045625      -0.78797024      -0.75862390
H       -2.11531854       1.41125354       0.45679859
H       -0.51306617       1.56682347      -0.98791791
H       -1.82614003      -1.33242739      -0.82678432
H       -2.16273190      -1.05667717       0.89428491
13
Frame=1 idx=002925 GeodesicLength=0.04616632771255682 rxn_smarts="[C:1]([C:2]1=[N:3][C:4]([H:10])([H:11])[C:5]([H:12])([H:13])[O:6]1)([H:7])([H:8])[H:9]>>[C:1]([C:2]1=[O+:6][C:5]([H:12])([H:13])[C-:4]([H:10])[N:3]1[H:11])([H:7])([H:8])[H:9]"
C        2.06005737      -0.13456447       0.06541945
C        0.59022239       0.02100232       0.09258170
N       -0.09326160       1.09578048      -0.07621159
C       -1.52216527       0.76715456      -0.19161188
C       -1.54881952      -0.73360527       0.04689841
O       -0.15290892      -1.06361931       0.34071057
H        2.39886509      -0.59953822       0.99306154
H        2.53467779       0.83716424      -0.04768007
H        2.36136855      -0.78606197      -0.75787995
H       -2.11683906       1.41013929       0.45116957
H       -0.52047339       1.56972389      -0.99223286
H       -1.83602148      -1.33122320      -0.82435223
H       -2.15470195      -1.05235234       0.90012735
13
Frame=2 idx=002925 GeodesicLength=0.09233706321886657 rxn_smarts="[C:1]([C:2]1=[N:3][C:4]([H:10])([H:11])[C:5]([H:12])([H:13])[O:6]1)([H:7])([H:8])[H:9]>>[C:1]([C:2]1=[O+:6][C:5]([H:12])([H:13])[C-:4]([H:10])[N:3]1[H:11])([H:7])([H:8])[H:9]"
C        2.06086552      -0.13464605       0.06779371
C        0.59079648       0.01961398       0.09614203
N       -0.09275426       1.09401392      -0.07070979
C       -1.51829921       0.76742232      -0.19370180
C       -1.54755386      -0.73315864       0.04589462
O       -0.15188229      -1.06929774       0.32864122
H        2.40055597      -0.60116584       0.99428147
H        2.53472571       0.83763057      -0.04418117
H        2.36234824      -0.78398518      -0.75717757
H       -2.11830893       1.40904684       0.44549692
H       -0.52803676       1.57250507      -0.99683504
H       -1.84606635      -1.32994788      -0.82170470
H       -2.14639026      -1.04803137       0.90606009
13
Frame=3 idx=002925 GeodesicLength=0.138515515097486 rxn_smarts="[C:1]([C:2]1=[N:3][C:4]([H:10])([H:11])[C:5]([H:12])([H:13])[O:6]1)([H:7])([H:8])[H:9]>>[C:1]([C:2]1=[O+:6][C:5]([H:12])([H:13])[C-:4]([H:10])[N:3]1[H:11])([H:7])([H:8])[H:9]"
C        2.06166349      -0.13473954       0.07023781
C        0.59135356       0.01816868       0.09963940
N       -0.09224079       1.09222319      -0.06518507
C       -1.51440956       0.76770716      -0.19579984
C       -1.54628023      -0.73269133       0.04493726
O       -0.15084605      -1.07489591       0.31617890
H        2.40214374      -0.60302108       0.99549277
H        2.53476247       0.83811898      -0.04030960
H        2.36342417      -0.78170879      -0.75652492
H       -2.11973047       1.40797987       0.43976415
H       -0.53576987       1.57516365      -1.00174258
H       -1.85631219      -1.32860081      -0.81880792
H       -2.13775825      -1.04370405       0.91211965
13
Frame=4 idx=002925 GeodesicLength=0.18470713063471386 rxn_smarts="[C:1]([C:2]1=[N:3][C:4]([H:10])([H:11])[C:5]([H:12])([H:13])[O:6]1)([H:7])([H:8])[H:9]>>[C:1]([C:2]1=[O+:6][C:5]([H:12])([H:13])[C-:4]([H:10])[N:3]1[H:11])([H:7])([H:8])[H:9]"
C        2.06245443      -0.13484479       0.07276755
C        0.59189429       0.01665412       0.10300380
N       -0.09171808       1.09040178      -0.05967720
C       -1.51049905       0.76801170      -0.19790139
C       -1.54500099      -0.73220096       0.04403444
O       -0.14979843      -1.08041446       0.30322107
H        2.40358705      -0.60511609       0.99671644
H        2.53479175       0.83863000      -0.03599966
H        2.36464904      -0.77921376      -0.75589502
H       -2.12108272       1.40694127       0.43399858
H       -0.54371045       1.57769188      -1.00699038
H       -1.86682340      -1.32717335      -0.81562219
H       -2.12874344      -1.03936735       0.91834394
13
Frame=5 idx=002925 GeodesicLength=0.23090562779636556 rxn_smarts="[C:1]([C:2]1=[N:3][C:4]([H:10])([H:11])[C:5]([H:12])([H:13])[O:6]1)([H:7])([H:8])[H:9]>>[C:1]([C:2]1=[O+:6][C:5]([H:12])([H:13])[C-:4]([H:10])[N:3]1[H:11])([H:7])([H:8])[H:9]"
C        2.06322897      -0.13497266       0.07535745
C        0.59241527       0.01509313       0.10632939
N       -0.09119197       1.08856921      -0.05410534
C       -1.50656324       0.76834020      -0.20000503
C       -1.54370206      -0.73168830       0.04316402
O       -0.14875088      -1.08580726       0.28992273
H        2.40494148      -0.60740373       0.99793491
H        2.53481111       0.83913731      -0.03139655
H        2.36593104      -0.77657745      -0.75529312
H       -2.12239971       1.40591835       0.42818190
H       -0.55183437       1.58011159      -1.01252379
H       -1.87746336      -1.32567249      -0.81220020
H       -2.11942229      -1.03504789       0.92463362
13
Frame=6 idx=002925 GeodesicLength=0.27710775419136063 rxn_smarts="[C:1]([C:2]1=[N:3][C:4]([H:10])([H:11])[C:5]([H:12])([H:13])[O:6]1)([H:7])([H:8])[H:9]>>[C:1]([C:2]1=[O+:6][C:5]([H:12])([H:13])[C-:4]([H:10])[N:3]1[H:11])([H:7])([H:8])[H:9]"
C        2.06397881      -0.13513259       0.07798084
C        0.59291307       0.01350481       0.10970817
N       -0.09066782       1.08674125      -0.04838830
C       -1.50259611       0.76869627      -0.20210613
C       -1.54237036      -0.73115376       0.04230391
O       -0.14771771      -1.09103028       0.27644984
H        2.40626422      -0.60983202       0.99912713
H        2.53481882       0.83961526      -0.02664630
H        2.36718069      -0.77387466      -0.75472406
H       -2.12371096       1.40489831       0.42229890
H       -0.56011818       1.58244117      -1.01828908
H       -1.88809408      -1.32410289      -0.80859990
H       -2.10988040      -1.03077086       0.93088496
13
Frame=7 idx=002925 GeodesicLength=0.32332964027185124 rxn_smarts="[C:1]([C:2]1=[N:3][C:4]([H:10])([H:11])[C:5]([H:12])([H:13])[O:6]1)([H:7])([H:8])[H:9]>>[C:1]([C:2]1=[O+:6][C:5]([H:12])([H:13])[C-:4]([H:10])[N:3]1[H:11])([H:7])([H:8])[H:9]"
C        2.06471634      -0.13532119       0.08066594
C        0.59339440       0.01186339       0.11301117
N       -0.09014155       1.08490450      -0.04261206
C       -1.49861008       0.76908903      -0.20419585
C       -1.54101822      -0.73059250       0.04147146
O       -0.14667269      -1.09611550       0.26263922
H        2.40748966      -0.61244455       1.00033341
H        2.53481446       0.84008464      -0.02160600
H        2.36851173      -0.77105466      -0.75416289
H       -2.12497964       1.40390239       0.41640688
H       -0.56862922       1.58465482      -1.02436786
H       -1.89884440      -1.32245102      -0.80477471
H       -2.10003078      -1.02651934       0.93719128
13
Frame=8 idx=002925 GeodesicLength=0.3695530337540762 rxn_smarts="[C:1]([C:2]1=[N:3][C:4]([H:10])([H:11])[C:5]([H:12])([H:13])[O:6]1)([H:7])([H:8])[H:9]>>[C:1]([C:2]1=[O+:6][C:5]([H:12])([H:13])[C-:4]([H:10])[N:3]1[H:11])([H:7])([H:8])[H:9]"
C        2.06543741      -0.13554218       0.08342170
C        0.59385277       0.01016575       0.11615763
N       -0.08960739       1.08305275      -0.03681615
C       -1.49459653       0.76951283      -0.20627376
C       -1.53963696      -0.73000567       0.04067948
O       -0.14567098      -1.10100207       0.24842696
H        2.40855486      -0.61526214       1.00154826
H        2.53481993       0.84052251      -0.01620731
H        2.36995604      -0.76808724      -0.75358858
H       -2.12617501       1.40291780       0.41051110
H       -0.57740409       1.58676356      -1.03076889
H       -1.90972094      -1.32072575      -0.80063867
H       -2.08980909      -1.02231014       0.94354821
13
Frame=9 idx=002925 GeodesicLength=0.41576287321435407 rxn_smarts="[C:1]([C:2]1=[N:3][C:4]([H:10])([H:11])[C:5]([H:12])([H:13])[O:6]1)([H:7])([H:8])[H:9]>>[C:1]([C:2]1=[O+:6][C:5]([H:12])([H:13])[C-:4]([H:10])[N:3]1[H:11])([H:7])([H:8])[H:9]"
C        2.06611749      -0.13580358       0.08617338
C        0.59428608       0.00846143       0.11946516
N       -0.08907449       1.08122010      -0.03075559
C       -1.49052802       0.76996875      -0.20833241
C       -1.53821022      -0.72939224       0.03986727
O       -0.14467746      -1.10567651       0.23427773
H        2.40965765      -0.61814101       1.00271119
H        2.53479760       0.84090760      -0.01085886
H        2.37124599      -0.76514872      -0.75304941
H       -2.12738124       1.40191266       0.40454039
H       -0.58631581       1.58878541      -1.03734344
H       -1.92041010      -1.31892664      -0.79642768
H       -2.07950746      -1.01816723       0.94973225
13
Frame=10 idx=002925 GeodesicLength=0.46198804173255237 rxn_smarts="[C:1]([C:2]1=[N:3][C:4]([H:10])([H:11])[C:5]([H:12])([H:13])[O:6]1)([H:7])([H:8])[H:9]>>[C:1]([C:2]1=[O+:6][C:5]([H:12])([H:13])[C-:4]([H:10])[N:3]1[H:11])([H:7])([H:8])[H:9]"
C        2.06677506      -0.13611430       0.08892975
C        0.59469860       0.00673770       0.12286493
N       -0.08855153       1.07940592      -0.02446126
C       -1.48642167       0.77047088      -0.21037406
C       -1.53673842      -0.72875466       0.03904432
O       -0.14371484      -1.11010861       0.22015256
H        2.41078515      -0.62111778       1.00382848
H        2.53477167       0.84122706      -0.00548740
H        2.37244341      -0.76222185      -0.75254619
H       -2.12860890       1.40091011       0.39850844
H       -0.59541889       1.59073690      -1.04412275
H       -1.93092794      -1.31707365      -0.79210204
H       -2.06909171      -1.01409772       0.95576522
13
Frame=11 idx=002925 GeodesicLength=0.508218692627775 rxn_smarts="[C:1]([C:2]1=[N:3][C:4]([H:10])([H:11])[C:5]([H:12])([H:13])[O:6]1)([H:7])([H:8])[H:9]>>[C:1]([C:2]1=[O+:6][C:5]([H:12])([H:13])[C-:4]([H:10])[N:3]1[H:11])([H:7])([H:8])[H:9]"
C        2.06740874      -0.13646664       0.09170305
C        0.59509115       0.00498731       0.12631074
N       -0.08803140       1.07759984      -0.01796739
C       -1.48226864       0.77101416      -0.21240094
C       -1.53522521      -0.72808735       0.03822797
O       -0.14277748      -1.11431681       0.20598446
H        2.41189758      -0.62424651       1.00489070
H        2.53473912       0.84150059       0.00001170
H        2.37358348      -0.75923965      -0.75209279
H       -2.12983037       1.39991122       0.39241105
H       -0.60473339       1.59258111      -1.05115327
H       -1.94133326      -1.31515708      -0.78761769
H       -2.05852034      -1.01008019       0.96169242
13
Frame=12 idx=002925 GeodesicLength=0.5544573948695792 rxn_smarts="[C:1]([C:2]1=[N:3][C:4]([H:10])([H:11])[C:5]([H:12])([H:13])[O:6]1)([H:7])([H:8])[H:9]>>[C:1]([C:2]1=[O+:6][C:5]([H:12])([H:13])[C-:4]([H:10])[N:3]1[H:11])([H:7])([H:8])[H:9]"
C        2.06802448      -0.13685947       0.09451047
C        0.59546741       0.00319680       0.12972317
N       -0.08750976       1.07579099      -0.01132403
C       -1.47807122       0.77160298      -0.21440577
C       -1.53367657      -0.72738655       0.03742945
O       -0.14185785      -1.11830575       0.19167445
H        2.41295139      -0.62755162       1.00591734
H        2.53470216       0.84173458       0.00572675
H        2.37473123      -0.75616713      -0.75167078
H       -2.13101626       1.39892713       0.38628030
H       -0.61430625       1.59429594      -1.05848568
H       -1.95169993      -1.31316672      -0.78293851
H       -2.04773883      -1.00611118       0.96756281
13
Frame=13 idx=002925 GeodesicLength=0.6007429727601321 rxn_smarts="[C:1]([C:2]1=[N:3][C:4]([H:10])([H:11])[C:5]([H:12])([H:13])[O:6]1)([H:7])([H:8])[H:9]>>[C:1]([C:2]1=[O+:6][C:5]([H:12])([H:13])[C-:4]([H:10])[N:3]1[H:11])([H:7])([H:8])[H:9]"
C        2.06864220      -0.13729619       0.09738351
C        0.59583887       0.00135146       0.13301620
N       -0.08699238       1.07399460      -0.00459296
C       -1.47385449       0.77226443      -0.21638015
C       -1.53209704      -0.72665157       0.03665617
O       -0.14092760      -1.12213790       0.17707199
H        2.41391877      -0.63107338       1.00697793
H        2.53466637       0.84196107       0.01175667
H        2.37597627      -0.75299875      -0.75126732
H       -2.13215677       1.39800012       0.38017547
H       -0.62422486       1.59585146      -1.06620522
H       -1.96213849      -1.31108311      -0.77804615
H       -2.03665085      -1.00218225       0.97345387
13
Frame=14 idx=002925 GeodesicLength=0.6470137794331863 rxn_smarts="[C:1]([C:2]1=[N:3][C:4]([H:10])([H:11])[C:5]([H:12])([H:13])[O:6]1)([H:7])([H:8])[H:9]>>[C:1]([C:2]1=[O+:6][C:5]([H:12])([H:13])[C-:4]([H:10])[N:3]1[H:11])([H:7])([H:8])[H:9]"
C        2.06922183      -0.13776884       0.10028635
C        0.59618488      -0.00051860       0.13620946
N       -0.08644585       1.07215582       0.00227102
C       -1.46954803       0.77293536      -0.21833197
C       -1.53047112      -0.72586637       0.03592426
O       -0.14007455      -1.12562768       0.16231778
H        2.41472627      -0.63480973       1.00791563
H        2.53464870       0.84208581       0.01809793
H        2.37723469      -0.74963686      -0.75087631
H       -2.13321662       1.39702519       0.37400283
H       -0.63442409       1.59724655      -1.07423100
H       -1.97250109      -1.30892386      -0.77284458
H       -2.02533502      -0.99829678       0.97925860
13
Frame=15 idx=002925 GeodesicLength=0.6933596615651743 rxn_smarts="[C:1]([C:2]1=[N:3][C:4]([H:10])([H:11])[C:5]([H:12])([H:13])[O:6]1)([H:7])([H:8])[H:9]>>[C:1]([C:2]1=[O+:6][C:5]([H:12])([H:13])[C-:4]([H:10])[N:3]1[H:11])([H:7])([H:8])[H:9]"
C        2.06980850      -0.13830707       0.10318599
C        0.59653131      -0.00241215       0.13950571
N       -0.08592785       1.07037007       0.00942806
C       -1.46521674       0.77370654      -0.22024390
C       -1.52879877      -0.72505668       0.03516470
O       -0.13921781      -1.12892086       0.14773082
H        2.41564303      -0.63866194       1.00883697
H        2.53463165       0.84217140       0.02443360
H        2.37840189      -0.74635047      -0.75055888
H       -2.13431433       1.39612070       0.36781429
H       -0.64493508       1.59854496      -1.08253401
H       -1.98262106      -1.30671475      -0.76763943
H       -2.01398474      -0.99448975       0.98487608
13
Frame=16 idx=002925 GeodesicLength=0.7395880420718244 rxn_smarts="[C:1]([C:2]1=[N:3][C:4]([H:10])([H:11])[C:5]([H:12])([H:13])[O:6]1)([H:7])([H:8])[H:9]>>[C:1]([C:2]1=[O+:6][C:5]([H:12])([H:13])[C-:4]([H:10])[N:3]1[H:11])([H:7])([H:8])[H:9]"
C        2.07033504      -0.13887396       0.10600418
C        0.59685230      -0.00429223       0.14311343
N       -0.08539808       1.06856845       0.01705017
C       -1.46075195       0.77450562      -0.22208103
C       -1.52707358      -0.72419468       0.03435535
O       -0.13842807      -1.13189465       0.13367828
H        2.41669133      -0.64247742       1.00957254
H        2.53458657       0.84216554       0.03049086
H        2.37924378      -0.74311972      -0.75032288
H       -2.13539264       1.39513362       0.36153102
H       -0.65554017       1.59964055      -1.09095669
H       -1.99223237      -1.30439412      -0.76251966
H       -2.00289215      -0.99076701       0.99008444
