14
Frame=0 idx=001970 GeodesicLength=0.0 rxn_smarts="[C:1]([C:2]([C:3](=[O:4])[O:5][C:6]([H:12])([H:13])[H:14])([H:10])[H:11])([H:7])([H:8])[H:9]>>[C-:3]([O:4][H:9])=[O+:5][C:6]([H:12])([H:13])[H:14].[C:1](=[C:2]([H:10])[H:11])([H:7])[H:8]"
C       -2.34430583       0.05802330      -0.14574618
C       -1.63512961       0.84974683       0.72862626
C        0.40762098       0.19104670       0.22579213
O        0.11197256      -0.65147083      -0.66587001
O        1.67596297       0.34001809       0.49383887
C        2.64170806      -0.45004314      -0.22711019
H       -2.83277327      -0.83908258       0.21807033
H       -2.72886743       0.48324564      -1.06610979
H       -0.98640215      -0.55353108      -0.66220596
H       -1.42858483       1.88945621       0.51111449
H       -1.53415499       0.58862198       1.77393373
H        3.61211422      -0.15403008       0.16163387
H        2.46457789      -1.51042813      -0.05169605
H        2.57626142      -0.24157293      -1.29427156
14
Frame=1 idx=001970 GeodesicLength=0.06147174245366736 rxn_smarts="[C:1]([C:2]([C:3](=[O:4])[O:5][C:6]([H:12])([H:13])[H:14])([H:10])[H:11])([H:7])([H:8])[H:9]>>[C-:3]([O:4][H:9])=[O+:5][C:6]([H:12])([H:13])[H:14].[C:1](=[C:2]([H:10])[H:11])([H:7])[H:8]"
C       -2.34548577       0.05812177      -0.14690902
C       -1.62654922       0.85470471       0.71934639
C        0.40685438       0.16571252       0.24021320
O        0.11608518      -0.66399191      -0.66510269
O        1.67431860       0.31759290       0.51455569
C        2.64571727      -0.44496968      -0.22731976
H       -2.84472058      -0.82586328       0.23440376
H       -2.73600595       0.48178422      -1.06559906
H       -1.00012766      -0.57061447      -0.66580238
H       -1.42794569       1.89469108       0.49439714
H       -1.53227284       0.60458639       1.76827642
H        3.61382652      -0.15229508       0.16965479
H        2.47808185      -1.51141056      -0.08166404
H        2.57822393      -0.20804862      -1.28845044
14
Frame=2 idx=001970 GeodesicLength=0.12294391738970398 rxn_smarts="[C:1]([C:2]([C:3](=[O:4])[O:5][C:6]([H:12])([H:13])[H:14])([H:10])[H:11])([H:7])([H:8])[H:9]>>[C-:3]([O:4][H:9])=[O+:5][C:6]([H:12])([H:13])[H:14].[C:1](=[C:2]([H:10])[H:11])([H:7])[H:8]"
C       -2.34663651       0.05812185      -0.14787735
C       -1.61742901       0.85914665       0.71005871
C        0.40603558       0.14110035       0.25305470
O        0.12020850      -0.67627209      -0.66511615
O        1.67255877       0.29563920       0.53398452
C        2.64942696      -0.43987182      -0.22704136
H       -2.85622196      -0.81240842       0.25072832
H       -2.74347291       0.48067248      -1.06450334
H       -1.01435088      -0.58759843      -0.66996094
H       -1.42749969       1.89958644       0.47830316
H       -1.52890901       0.61955061       1.76226605
H        3.61523058      -0.15067653       0.17807973
H        2.49097843      -1.51129903      -0.11032183
H        2.58008116      -0.17569127      -1.28165422
14
Frame=3 idx=001970 GeodesicLength=0.18440449435732365 rxn_smarts="[C:1]([C:2]([C:3](=[O:4])[O:5][C:6]([H:12])([H:13])[H:14])([H:10])[H:11])([H:7])([H:8])[H:9]>>[C-:3]([O:4][H:9])=[O+:5][C:6]([H:12])([H:13])[H:14].[C:1](=[C:2]([H:10])[H:11])([H:7])[H:8]"
C       -2.34782676       0.05748118      -0.14811915
C       -1.60789884       0.86324937       0.70062114
C        0.40531224       0.11851436       0.26316221
O        0.12454604      -0.68636069      -0.66767692
O        1.67070166       0.27418019       0.55214729
C        2.65288129      -0.43524830      -0.22588758
H       -2.86602823      -0.79981758       0.26806056
H       -2.75258502       0.47897007      -1.06188268
H       -1.02898519      -0.60365227      -0.67541465
H       -1.42825833       1.90436500       0.46237585
H       -1.52343235       0.63399705       1.75578130
H        3.61626281      -0.15070499       0.18824974
H        2.50230509      -1.51057819      -0.13793161
H        2.58300558      -0.14439521      -1.27348549
14
Frame=4 idx=001970 GeodesicLength=0.24583212815656336 rxn_smarts="[C:1]([C:2]([C:3](=[O:4])[O:5][C:6]([H:12])([H:13])[H:14])([H:10])[H:11])([H:7])([H:8])[H:9]>>[C-:3]([O:4][H:9])=[O+:5][C:6]([H:12])([H:13])[H:14].[C:1](=[C:2]([H:10])[H:11])([H:7])[H:8]"
C       -2.34892753       0.05737861      -0.14877724
C       -1.59787803       0.86677973       0.69124344
C        0.40444289       0.09506115       0.27330828
O        0.12874336      -0.69840823      -0.66889696
O        1.66876316       0.25307783       0.56925079
C        2.65609339      -0.43010330      -0.22479163
H       -2.87664146      -0.78580780       0.28430872
H       -2.76047960       0.47856861      -1.05975846
H       -1.04421121      -0.62044129      -0.68051630
H       -1.42830452       1.90864110       0.44751967
H       -1.51762582       0.64715952       1.74910010
H        3.61714796      -0.14916717       0.19719843
H        2.51430733      -1.50850273      -0.16416587
H        2.58457009      -0.11423603      -1.26502297
14
Frame=5 idx=001970 GeodesicLength=0.30725358276481884 rxn_smarts="[C:1]([C:2]([C:3](=[O:4])[O:5][C:6]([H:12])([H:13])[H:14])([H:10])[H:11])([H:7])([H:8])[H:9]>>[C-:3]([O:4][H:9])=[O+:5][C:6]([H:12])([H:13])[H:14].[C:1](=[C:2]([H:10])[H:11])([H:7])[H:8]"
C       -2.34985904       0.05787930      -0.14992322
C       -1.58719174       0.86985659       0.68175029
C        0.40332313       0.06973595       0.28437477
O        0.13275823      -0.71291213      -0.66845544
O        1.66663239       0.23163590       0.58603842
C        2.65893403      -0.42421711      -0.22388419
H       -2.88814279      -0.77009331       0.29955422
H       -2.76690712       0.47938743      -1.05838076
H       -1.06009384      -0.63824086      -0.68505526
H       -1.42692033       1.91237761       0.43315968
H       -1.51177822       0.65961067       1.74219516
H        3.61775340      -0.14572880       0.20481213
H        2.52726606      -1.50505447      -0.18991168
H        2.58422583      -0.08423677      -1.25627412
14
Frame=6 idx=001970 GeodesicLength=0.36870674174921353 rxn_smarts="[C:1]([C:2]([C:3](=[O:4])[O:5][C:6]([H:12])([H:13])[H:14])([H:10])[H:11])([H:7])([H:8])[H:9]>>[C-:3]([O:4][H:9])=[O+:5][C:6]([H:12])([H:13])[H:14].[C:1](=[C:2]([H:10])[H:11])([H:7])[H:8]"
C       -2.35079977       0.05823088      -0.15086156
C       -1.57615558       0.87252181       0.67219035
C        0.40224685       0.04534194       0.29399909
O        0.13689641      -0.72698264      -0.66883087
O        1.66447518       0.21082169       0.60171445
C        2.66158558      -0.41843589      -0.22255203
H       -2.89897033      -0.75433095       0.31486903
H       -2.77372073       0.48037493      -1.05644380
H       -1.07650099      -0.65576773      -0.69010059
H       -1.42610485       1.91592213       0.41944451
H       -1.50473934       0.67122013       1.73499097
H        3.61815831      -0.14255863       0.21285094
H        2.53964235      -1.50092342      -0.21437496
H        2.58398691      -0.05543425      -1.24689553
14
Frame=7 idx=001970 GeodesicLength=0.4301752401408889 rxn_smarts="[C:1]([C:2]([C:3](=[O:4])[O:5][C:6]([H:12])([H:13])[H:14])([H:10])[H:11])([H:7])([H:8])[H:9]>>[C-:3]([O:4][H:9])=[O+:5][C:6]([H:12])([H:13])[H:14].[C:1](=[C:2]([H:10])[H:11])([H:7])[H:8]"
C       -2.35180188       0.05829711      -0.15146308
C       -1.56489982       0.87483389       0.66255397
C        0.40129349       0.02243971       0.30175277
O        0.14123652      -0.74004535      -0.67048397
O        1.66233935       0.19085975       0.61613880
C        2.66413045      -0.41295236      -0.22069695
H       -2.90879439      -0.73889145       0.33047638
H       -2.78128739       0.48131443      -1.05369242
H       -1.09340952      -0.67274276      -0.69584981
H       -1.42633917       1.91936444       0.40643445
H       -1.49639542       0.68200412       1.72747633
H        3.61841391      -0.14009098       0.22163249
H        2.55119608      -1.49633111      -0.23738980
H        2.58431781      -0.02805943      -1.23688915
14
Frame=8 idx=001970 GeodesicLength=0.491612973879555 rxn_smarts="[C:1]([C:2]([C:3](=[O:4])[O:5][C:6]([H:12])([H:13])[H:14])([H:10])[H:11])([H:7])([H:8])[H:9]>>[C-:3]([O:4][H:9])=[O+:5][C:6]([H:12])([H:13])[H:14].[C:1](=[C:2]([H:10])[H:11])([H:7])[H:8]"
C       -2.35273977       0.05861211      -0.15227066
C       -1.55335296       0.87656512       0.65306556
C        0.40040359      -0.00005189       0.30875262
O        0.14566213      -0.75391109      -0.67175435
O        1.66026530       0.17210031       0.62923095
C        2.66649909      -0.40734441      -0.21874671
H       -2.91872700      -0.72272528       0.34525562
H       -2.78817159       0.48315286      -1.05107858
H       -1.11087548      -0.68985323      -0.70159419
H       -1.42684290       1.92250633       0.39490859
H       -1.48749579       0.69129963       1.71986276
H        3.61854828      -0.13675436       0.22979762
H        2.56273120      -1.49106163      -0.25841952
H        2.58409590      -0.00253447      -1.22700970
14
Frame=9 idx=001970 GeodesicLength=0.5530485735458699 rxn_smarts="[C:1]([C:2]([C:3](=[O:4])[O:5][C:6]([H:12])([H:13])[H:14])([H:10])[H:11])([H:7])([H:8])[H:9]>>[C-:3]([O:4][H:9])=[O+:5][C:6]([H:12])([H:13])[H:14].[C:1](=[C:2]([H:10])[H:11])([H:7])[H:8]"
C       -2.35374286       0.05883547      -0.15298421
C       -1.54176659       0.87785289       0.64369782
C        0.39972189      -0.02095295       0.31413057
O        0.15033884      -0.76721970      -0.67371226
O        1.65834124       0.15489807       0.64079974
C        2.66887244      -0.40202163      -0.21647779
H       -2.92809991      -0.70663381       0.35974824
H       -2.79524246       0.48533420      -1.04806178
H       -1.12884309      -0.70656163      -0.70773277
H       -1.42856929       1.92555331       0.38484643
H       -1.47775160       0.69924471       1.71212419
H        3.61868369      -0.13358536       0.23810721
H        2.57371029      -1.48558210      -0.27729186
H        2.58434743       0.02083854      -1.21719351
14
Frame=10 idx=001970 GeodesicLength=0.614512829893347 rxn_smarts="[C:1]([C:2]([C:3](=[O:4])[O:5][C:6]([H:12])([H:13])[H:14])([H:10])[H:11])([H:7])([H:8])[H:9]>>[C-:3]([O:4][H:9])=[O+:5][C:6]([H:12])([H:13])[H:14].[C:1](=[C:2]([H:10])[H:11])([H:7])[H:8]"
C       -2.35525693       0.05784645      -0.15255195
C       -1.53103168       0.87908635       0.63438536
C        0.39976422      -0.03594582       0.31445603
O        0.15579479      -0.77530941      -0.68001803
O        1.65689679       0.14060367       0.64970070
C        2.67188433      -0.39838887      -0.21305001
H       -2.93480128      -0.69325145       0.37574830
H       -2.80539381       0.48607983      -1.04265379
H       -1.14705114      -0.72115341      -0.71559061
H       -1.43494663       1.92910720       0.37635549
H       -1.46601120       0.70604706       1.70406945
H        3.61924558      -0.13416361       0.24909337
H        2.58224955      -1.48116225      -0.29302588
H        2.58865740       0.04060426      -1.20691843
14
Frame=11 idx=001970 GeodesicLength=0.6759113262989057 rxn_smarts="[C:1]([C:2]([C:3](=[O:4])[O:5][C:6]([H:12])([H:13])[H:14])([H:10])[H:11])([H:7])([H:8])[H:9]>>[C-:3]([O:4][H:9])=[O+:5][C:6]([H:12])([H:13])[H:14].[C:1](=[C:2]([H:10])[H:11])([H:7])[H:8]"
C       -2.35680363       0.05702714      -0.15223613
C       -1.52018508       0.88004872       0.62497764
C        0.39987525      -0.05083455       0.31448741
O        0.16141658      -0.78375215      -0.68622074
O        1.65548653       0.12694808       0.65794449
C        2.67489138      -0.39469336      -0.20959762
H       -2.94151247      -0.67928518       0.39132009
H       -2.81511936       0.48731487      -1.03732823
H       -1.16588855      -0.73601213      -0.72320576
H       -1.44157207       1.93241391       0.36884665
H       -1.45411393       0.71209052       1.69581042
H        3.61979692      -0.13428000       0.25972200
H        2.59096994      -1.47644416      -0.30775093
H        2.59275849       0.05945829      -1.19676929
14
Frame=12 idx=001970 GeodesicLength=0.7373586452501522 rxn_smarts="[C:1]([C:2]([C:3](=[O:4])[O:5][C:6]([H:12])([H:13])[H:14])([H:10])[H:11])([H:7])([H:8])[H:9]>>[C-:3]([O:4][H:9])=[O+:5][C:6]([H:12])([H:13])[H:14].[C:1](=[C:2]([H:10])[H:11])([H:7])[H:8]"
C       -2.35831225       0.05648051      -0.15204885
C       -1.50885792       0.88086475       0.61515797
C        0.39981533      -0.06718178       0.31515453
O        0.16707969      -0.79325676      -0.69200856
O        1.65385920       0.11258272       0.66642105
C        2.67768021      -0.39056083      -0.20617925
H       -2.94832460      -0.66430166       0.40674980
H       -2.82426922       0.48897842      -1.03224616
H       -1.18557487      -0.75155301      -0.73039658
H       -1.44723395       1.93535176       0.36126723
H       -1.44210645       0.71818591       1.68719118
H        3.62011020      -0.13356372       0.26999299
H        2.60027592      -1.47097114      -0.32284422
H        2.59585872       0.07894483      -1.18621112
14
Frame=13 idx=001970 GeodesicLength=0.798848506761221 rxn_smarts="[C:1]([C:2]([C:3](=[O:4])[O:5][C:6]([H:12])([H:13])[H:14])([H:10])[H:11])([H:7])([H:8])[H:9]>>[C-:3]([O:4][H:9])=[O+:5][C:6]([H:12])([H:13])[H:14].[C:1](=[C:2]([H:10])[H:11])([H:7])[H:8]"
C       -2.35957876       0.05656772      -0.15223114
C       -1.49647077       0.88145500       0.60467222
C        0.39924762      -0.08733380       0.31800244
O        0.17254026      -0.80560852      -0.69625112
O        1.65171001       0.09602881       0.67612934
C        2.67985223      -0.38531655      -0.20301919
H       -2.95572876      -0.64724476       0.42183115
H       -2.83200498       0.49148875      -1.02795586
H       -1.20636856      -0.76845799      -0.73674211
H       -1.45004358       1.93763847       0.35269583
H       -1.43019555       0.72486593       1.67807832
H        3.61983819      -0.13081476       0.27932814
H        2.61088567      -1.46397069      -0.33966804
H        2.59631698       0.10070241      -1.17486998
14
Frame=14 idx=001970 GeodesicLength=0.8603546989971154 rxn_smarts="[C:1]([C:2]([C:3](=[O:4])[O:5][C:6]([H:12])([H:13])[H:14])([H:10])[H:11])([H:7])([H:8])[H:9]>>[C-:3]([O:4][H:9])=[O+:5][C:6]([H:12])([H:13])[H:14].[C:1](=[C:2]([H:10])[H:11])([H:7])[H:8]"
C       -2.36136025       0.05562994      -0.15138765
C       -1.48482654       0.88231928       0.59373517
C        0.39918864      -0.10338231       0.31731083
O        0.17870279      -0.81356400      -0.70414129
O        1.64981603       0.08082940       0.68440391
C        2.68265107      -0.38135985      -0.19893555
H       -2.96093262      -0.63220259       0.43862794
H       -2.84241205       0.49241882      -1.02166983
H       -1.22766614      -0.78415206      -0.74398314
H       -1.45625250       1.94028339       0.34452771
H       -1.41690601       0.73157039       1.66833128
H        3.61993346      -0.13140876       0.29103157
H        2.61996575      -1.45777059      -0.35514371
H        2.60009836       0.12078895      -1.16270724
14
Frame=15 idx=001970 GeodesicLength=0.9219377964271227 rxn_smarts="[C:1]([C:2]([C:3](=[O:4])[O:5][C:6]([H:12])([H:13])[H:14])([H:10])[H:11])([H:7])([H:8])[H:9]>>[C-:3]([O:4][H:9])=[O+:5][C:6]([H:12])([H:13])[H:14].[C:1](=[C:2]([H:10])[H:11])([H:7])[H:8]"
C       -2.36257454       0.05598307      -0.15147514
C       -1.47141347       0.88249002       0.58224727
C        0.39831021      -0.12567721       0.32034680
O        0.18437897      -0.82699038      -0.70873712
O        1.64714976       0.06283774       0.69429108
C        2.68429155      -0.37542031      -0.19549158
H       -2.96782574      -0.61348228       0.45401335
H       -2.84966757       0.49539174      -1.01725905
H       -1.25043586      -0.80214251      -0.74965540
H       -1.45744399       1.94182471       0.33552642
H       -1.40395552       0.73829998       1.65823915
H        3.61900932      -0.12775798       0.30053459
H        2.63113873      -1.44910314      -0.37259344
H        2.59903816       0.14374657      -1.14998694
14
Frame=16 idx=001970 GeodesicLength=0.9835657286397911 rxn_smarts="[C:1]([C:2]([C:3](=[O:4])[O:5][C:6]([H:12])([H:13])[H:14])([H:10])[H:11])([H:7])([H:8])[H:9]>>[C-:3]([O:4][H:9])=[O+:5][C:6]([H:12])([H:13])[H:14].[C:1](=[C:2]([H:10])[H:11])([H:7])[H:8]"
C       -2.36406406       0.05582089      -0.15091310
C       -1.45809716       0.88275032       0.57010108
C        0.39756634      -0.14653019       0.32157778
O        0.19048322      -0.83832195      -0.71546787
O        1.64440606       0.04486089       0.70363038
C        2.68610393      -0.36995737      -0.19142124
H       -2.97325493      -0.59544764       0.47061302
H       -2.85840266       0.49751245      -1.01161891
H       -1.27407819      -0.81976366      -0.75563565
H       -1.45983154       1.94335393       0.32621622
H       -1.38990667       0.74533502       1.64741771
H        3.61806016      -0.12575408       0.31150602
H        2.64170203      -1.44032839      -0.38977683
H        2.59931346       0.16646976      -1.13622861
