17
Frame=0 idx=006888 GeodesicLength=0.0 rxn_smarts="[C:1]([C@@:2]1([H:11])[O:3][C:4]([H:12])([H:13])[C@@:5]2([H:14])[C:6]([H:15])([H:16])[C@@:7]12[H:17])([H:8])([H:9])[H:10]>>[C:1]([C@@:2]1([H:11])[O:3][C:4]([H:12])([H:13])[C:5]([H:14])([H:17])[C:6]([H:15])([H:16])[C:7]1)([H:8])([H:9])[H:10]"
C       -2.16496906      -0.49433939       0.30675829
C       -0.89725438      -0.14578370      -0.45362949
O       -0.49106001       1.17164562      -0.05635233
C        0.85325421       1.38559916      -0.41846374
C        1.57692859       0.05295952      -0.30106885
C        1.04162938      -0.72866511       0.90832738
C        0.14926657      -1.20119148      -0.16170480
H       -2.90912236       0.28373309       0.13800770
H       -1.96829963      -0.55694164       1.37841459
H       -2.56466056      -1.44817726      -0.03547250
H       -1.11215722      -0.13658706      -1.52995233
H        0.93331085       1.78076470      -1.43973101
H        1.26204696       2.12661415       0.27200090
H        2.65953421       0.04370272      -0.40278274
H        0.64360422      -0.05437371       1.66487769
H        1.72785830      -1.46476460       1.31612994
H        1.26008988      -0.61419507      -1.18535873
17
Frame=1 idx=006888 GeodesicLength=0.06592069004872064 rxn_smarts="[C:1]([C@@:2]1([H:11])[O:3][C:4]([H:12])([H:13])[C@@:5]2([H:14])[C:6]([H:15])([H:16])[C@@:7]12[H:17])([H:8])([H:9])[H:10]>>[C:1]([C@@:2]1([H:11])[O:3][C:4]([H:12])([H:13])[C:5]([H:14])([H:17])[C:6]([H:15])([H:16])[C:7]1)([H:8])([H:9])[H:10]"
C       -2.16859749      -0.48999574       0.30821323
C       -0.89983777      -0.14277861      -0.45043168
O       -0.49196706       1.17339004      -0.05335542
C        0.85127207       1.38592569      -0.42108789
C        1.58120849       0.05788350      -0.29627429
C        1.04840366      -0.73399062       0.90546128
C        0.15083446      -1.19325487      -0.16518277
H       -2.91296614       0.28743688       0.13724238
H       -1.97411188      -0.55042490       1.38034711
H       -2.56695782      -1.44491961      -0.03262178
H       -1.11366162      -0.13599026      -1.52761579
H        0.92331925       1.77022595      -1.44729105
H        1.25919445       2.13722514       0.25851705
H        2.66502492       0.06428515      -0.38299784
H        0.64086416      -0.07630036       1.67182003
H        1.73128645      -1.47765750       1.30491952
H        1.27669186      -0.63105989      -1.18966211
17
Frame=2 idx=006888 GeodesicLength=0.1318341386263817 rxn_smarts="[C:1]([C@@:2]1([H:11])[O:3][C:4]([H:12])([H:13])[C@@:5]2([H:14])[C:6]([H:15])([H:16])[C@@:7]12[H:17])([H:8])([H:9])[H:10]>>[C:1]([C@@:2]1([H:11])[O:3][C:4]([H:12])([H:13])[C:5]([H:14])([H:17])[C:6]([H:15])([H:16])[C:7]1)([H:8])([H:9])[H:10]"
C       -2.17216690      -0.48561934       0.30973370
C       -0.90242182      -0.13969059      -0.44722798
O       -0.49287247       1.17524337      -0.05040234
C        0.84928209       1.38634212      -0.42375040
C        1.58549527       0.06299972      -0.29128993
C        1.05509805      -0.73931314       0.90251863
C        0.15252333      -1.18512928      -0.16884748
H       -2.91678539       0.29114087       0.13657849
H       -1.97979575      -0.54385519       1.38232512
H       -2.56914957      -1.44165838      -0.02966435
H       -1.11523372      -0.13527735      -1.52525727
H        0.91343656       1.75944350      -1.45480391
H        1.25620740       2.14798120       0.24467379
H        2.67009283       0.08496187      -0.36292165
H        0.63801077      -0.09879211       1.67855075
H        1.73463968      -1.49050861       1.29336814
H        1.29363962      -0.64826864      -1.19358331
17
Frame=3 idx=006888 GeodesicLength=0.1977388634990767 rxn_smarts="[C:1]([C@@:2]1([H:11])[O:3][C:4]([H:12])([H:13])[C@@:5]2([H:14])[C:6]([H:15])([H:16])[C@@:7]12[H:17])([H:8])([H:9])[H:10]>>[C:1]([C@@:2]1([H:11])[O:3][C:4]([H:12])([H:13])[C:5]([H:14])([H:17])[C:6]([H:15])([H:16])[C:7]1)([H:8])([H:9])[H:10]"
C       -2.17567335      -0.48120969       0.31132341
C       -0.90500514      -0.13652042      -0.44402044
O       -0.49377709       1.17720864      -0.04750435
C        0.84728685       1.38685150      -0.42645129
C        1.58978393       0.06831212      -0.28611021
C        1.06170998      -0.74463053       0.89949435
C        0.15433579      -1.17681093      -0.17270526
H       -2.92057831       0.29484373       0.13601992
H       -1.98534325      -0.53722831       1.38435209
H       -2.57123095      -1.43839421      -0.02659215
H       -1.11687889      -0.13444916      -1.52287796
H        0.90367523       1.74841850      -1.46226280
H        1.25308152       2.15887345       0.23046999
H        2.67473595       0.10573090      -0.34253815
H        0.63503984      -0.12186362       1.68504549
H        1.73792032      -1.50330316       1.28146916
H        1.31091758      -0.66582882      -1.19711181
17
Frame=4 idx=006888 GeodesicLength=0.26364664359844514 rxn_smarts="[C:1]([C@@:2]1([H:11])[O:3][C:4]([H:12])([H:13])[C@@:5]2([H:14])[C:6]([H:15])([H:16])[C@@:7]12[H:17])([H:8])([H:9])[H:10]>>[C:1]([C@@:2]1([H:11])[O:3][C:4]([H:12])([H:13])[C:5]([H:14])([H:17])[C:6]([H:15])([H:16])[C:7]1)([H:8])([H:9])[H:10]"
C       -2.17911241      -0.47676573       0.31298687
C       -0.90758617      -0.13326875      -0.44081135
O       -0.49468131       1.17928921      -0.04467368
C        0.84528974       1.38745637      -0.42919160
C        1.59406965       0.07382470      -0.28072949
C        1.06823752      -0.74994125       0.89638183
C        0.15627443      -1.16829592      -0.17676326
H       -2.92434268       0.29854447       0.13557146
H       -1.99074527      -0.53053912       1.38643214
H       -2.57319702      -1.43512735      -0.02339569
H       -1.11860308      -0.13350652      -1.52047929
H        0.89404920       1.73715034      -1.46966182
H        1.24981364       2.16989281       0.21590201
H        2.67894879       0.12659946      -0.32181729
H        0.63194799      -0.14553264       1.69127609
H        1.74113227      -1.51602716       1.26921311
H        1.32850471      -0.68375292      -1.20024004
17
Frame=5 idx=006888 GeodesicLength=0.32955674677321756 rxn_smarts="[C:1]([C@@:2]1([H:11])[O:3][C:4]([H:12])([H:13])[C@@:5]2([H:14])[C:6]([H:15])([H:16])[C@@:7]12[H:17])([H:8])([H:9])[H:10]>>[C:1]([C@@:2]1([H:11])[O:3][C:4]([H:12])([H:13])[C:5]([H:14])([H:17])[C:6]([H:15])([H:16])[C:7]1)([H:8])([H:9])[H:10]"
C       -2.18248006      -0.47228698       0.31472719
C       -0.91016250      -0.12993705      -0.43760246
O       -0.49558624       1.18148800      -0.04192167
C        0.84329358       1.38816018      -0.43197037
C        1.59834729       0.07954051      -0.27514273
C        1.07467865      -0.75524284       0.89317674
C        0.15834176      -1.15958081      -0.18102471
H       -2.92807658       0.30224135       0.13523452
H       -1.99599480      -0.52378194       1.38856836
H       -2.57504239      -1.43185904      -0.02006685
H       -1.12040964      -0.13245171      -1.51806217
H        0.88457067       1.72564118      -1.47699320
H        1.24640142       2.18102898       0.20097057
H        2.68272938       0.14756827      -0.30074176
H        0.62873374      -0.16981310       1.69721457
H        1.74427937      -1.52866505       1.25659579
H        1.34637635      -0.70204995      -1.20296184
17
Frame=6 idx=006888 GeodesicLength=0.3954760962172465 rxn_smarts="[C:1]([C@@:2]1([H:11])[O:3][C:4]([H:12])([H:13])[C@@:5]2([H:14])[C:6]([H:15])([H:16])[C@@:7]12[H:17])([H:8])([H:9])[H:10]>>[C:1]([C@@:2]1([H:11])[O:3][C:4]([H:12])([H:13])[C:5]([H:14])([H:17])[C:6]([H:15])([H:16])[C:7]1)([H:8])([H:9])[H:10]"
C       -2.18577102      -0.46777303       0.31654849
C       -0.91273139      -0.12652629      -0.43439588
O       -0.49649293       1.18380894      -0.03926140
C        0.84130224       1.38896623      -0.43478731
C        1.60261172       0.08546451      -0.26934129
C        1.08103238      -0.76053150       0.88987375
C        0.16054141      -1.15066086      -0.18549474
H       -2.93177779       0.30593148       0.13501187
H       -2.00108275      -0.51695054       1.39076469
H       -2.57675998      -1.42859092      -0.01659538
H       -1.12230250      -0.13128668      -1.51562803
H        0.87525528       1.71389157      -1.48424875
H        1.24284414       2.19227252       0.18567164
H        2.68606597       0.16863809      -0.27928425
H        0.62539331      -0.19472341       1.70282941
H        1.74736694      -1.54120028       1.24360935
H        1.36450498      -0.72072984      -1.20527217
17
Frame=7 idx=006888 GeodesicLength=0.4614157502849321 rxn_smarts="[C:1]([C@@:2]1([H:11])[O:3][C:4]([H:12])([H:13])[C@@:5]2([H:14])[C:6]([H:15])([H:16])[C@@:7]12[H:17])([H:8])([H:9])[H:10]>>[C:1]([C@@:2]1([H:11])[O:3][C:4]([H:12])([H:13])[C:5]([H:14])([H:17])[C:6]([H:15])([H:16])[C:7]1)([H:8])([H:9])[H:10]"
C       -2.18898040      -0.46322295       0.31845405
C       -0.91528951      -0.12303838      -0.43119329
O       -0.49740239       1.18625459      -0.03670493
C        0.83931874       1.38987741      -0.43764193
C        1.60685788       0.09160067      -0.26331721
C        1.08729805      -0.76580469       0.88646889
C        0.16287598      -1.14153250      -0.19017541
H       -2.93544397       0.30961257       0.13490403
H       -2.00600157      -0.51003721       1.39302428
H       -2.57834301      -1.42532390      -0.01297147
H       -1.12428376      -0.13001487      -1.51317805
H        0.86611792       1.70190641      -1.49141966
H        1.23913964       2.20361303       0.17000276
H        2.68895057       0.18981282      -0.25741886
H        0.62192648      -0.22028037       1.70808811
H        1.75040167      -1.55361674       1.23024925
H        1.38285768      -0.73980588      -1.20717057
17
Frame=8 idx=006888 GeodesicLength=0.5273636613412463 rxn_smarts="[C:1]([C@@:2]1([H:11])[O:3][C:4]([H:12])([H:13])[C@@:5]2([H:14])[C:6]([H:15])([H:16])[C@@:7]12[H:17])([H:8])([H:9])[H:10]>>[C:1]([C@@:2]1([H:11])[O:3][C:4]([H:12])([H:13])[C:5]([H:14])([H:17])[C:6]([H:15])([H:16])[C:7]1)([H:8])([H:9])[H:10]"
C       -2.19210356      -0.45863638       0.32044581
C       -0.91783259      -0.11947591      -0.42799554
O       -0.49831696       1.18882788      -0.03426394
C        0.83734624       1.39089769      -0.44053193
C        1.61108219       0.09795317      -0.25706358
C        1.09347566      -0.77105693       0.88296159
C        0.16534827      -1.13219234      -0.19506505
H       -2.93907288       0.31328151       0.13490779
H       -2.01074587      -0.50303362       1.39534941
H       -2.57978400      -1.42206044      -0.00918663
H       -1.12635242      -0.12864187      -1.51071225
H        0.85717026       1.68969161      -1.49849623
H        1.23528681       2.21504033       0.15396872
H        2.69137603       0.21108607      -0.23513710
H        0.61833264      -0.24649725       1.71295824
H        1.75338916      -1.56589862       1.21651629
H        1.40140100      -0.75928492      -1.20865559
17
Frame=9 idx=006888 GeodesicLength=0.5932683001226504 rxn_smarts="[C:1]([C@@:2]1([H:11])[O:3][C:4]([H:12])([H:13])[C@@:5]2([H:14])[C:6]([H:15])([H:16])[C@@:7]12[H:17])([H:8])([H:9])[H:10]>>[C:1]([C@@:2]1([H:11])[O:3][C:4]([H:12])([H:13])[C:5]([H:14])([H:17])[C:6]([H:15])([H:16])[C:7]1)([H:8])([H:9])[H:10]"
C       -2.19513496      -0.45401625       0.32252538
C       -0.92035402      -0.11584373      -0.42480325
O       -0.49923887       1.19153007      -0.03195143
C        0.83538712       1.39203009      -0.44344992
C        1.61527167       0.10452481      -0.25056318
C        1.09956639      -0.77628677       0.87935299
C        0.16796358      -1.12263489      -0.20015921
H       -2.94266207       0.31693009       0.13501657
H       -2.01531143      -0.49593156       1.39774238
H       -2.58107299      -1.41880792      -0.00523105
H       -1.12850449      -0.12717715      -1.50823164
H        0.84842659       1.67726365      -1.50545662
H        1.23129915       2.22654530       0.13756813
H        2.69330758       0.23242201      -0.21245336
H        0.61460570      -0.27336591       1.71740027
H        1.75633954      -1.57803536       1.20242266
H        1.42011152      -0.77914649      -1.20972871
17
Frame=10 idx=006888 GeodesicLength=0.6592000454567798 rxn_smarts="[C:1]([C@@:2]1([H:11])[O:3][C:4]([H:12])([H:13])[C@@:5]2([H:14])[C:6]([H:15])([H:16])[C@@:7]12[H:17])([H:8])([H:9])[H:10]>>[C:1]([C@@:2]1([H:11])[O:3][C:4]([H:12])([H:13])[C:5]([H:14])([H:17])[C:6]([H:15])([H:16])[C:7]1)([H:8])([H:9])[H:10]"
C       -2.19806849      -0.44935823       0.32469815
C       -0.92285151      -0.11214167      -0.42161966
O       -0.50016838       1.19436655      -0.02978236
C        0.83344789       1.39327706      -0.44640201
C        1.61942690       0.11132096      -0.24381259
C        1.10556991      -0.78148944       0.87563262
C        0.17072285      -1.11285800      -0.20546299
H       -2.94620812       0.32055996       0.13523550
H       -2.01968536      -0.48871995       1.40020760
H       -2.58220319      -1.41556307      -0.00109080
H       -1.13074462      -0.12562164      -1.50573812
H        0.83990595       1.66461032      -1.51230441
H        1.22716657       2.23811295       0.12080162
H        2.69475107       0.25387088      -0.18928494
H        0.61075193      -0.30092652       1.72137698
H        1.75926183      -1.59000075       1.18794784
H        1.43892477      -0.79943941      -1.21040243
17
Frame=11 idx=006888 GeodesicLength=0.7251529947093904 rxn_smarts="[C:1]([C@@:2]1([H:11])[O:3][C:4]([H:12])([H:13])[C@@:5]2([H:14])[C:6]([H:15])([H:16])[C@@:7]12[H:17])([H:8])([H:9])[H:10]>>[C:1]([C@@:2]1([H:11])[O:3][C:4]([H:12])([H:13])[C:5]([H:14])([H:17])[C:6]([H:15])([H:16])[C:7]1)([H:8])([H:9])[H:10]"
C       -2.20089908      -0.44466146       0.32696633
C       -0.92531967      -0.10837299      -0.41844612
O       -0.50110673       1.19733980      -0.02776967
C        0.83153259       1.39464137      -0.44938669
C        1.62354314       0.11834530      -0.23680247
C        1.11148792      -0.78666167       0.87179747
C        0.17362844      -1.10285954      -0.21097300
H       -2.94970824       0.32416788       0.13556126
H       -2.02386138      -0.48138888       1.40274747
H       -2.58316747      -1.41232733       0.00324456
H       -1.13306987      -0.12398280      -1.50323294
H        0.83162218       1.65173768      -1.51903018
H        1.22289157       2.24972995       0.10367299
H        2.69569199       0.27544016      -0.16560548
H        0.60677485      -0.32919008       1.72484900
H        1.76216680      -1.60177863       1.17309333
H        1.45779296      -0.82017877      -1.21068586
17
Frame=12 idx=006888 GeodesicLength=0.7911302359889436 rxn_smarts="[C:1]([C@@:2]1([H:11])[O:3][C:4]([H:12])([H:13])[C@@:5]2([H:14])[C:6]([H:15])([H:16])[C@@:7]12[H:17])([H:8])([H:9])[H:10]>>[C:1]([C@@:2]1([H:11])[O:3][C:4]([H:12])([H:13])[C:5]([H:14])([H:17])[C:6]([H:15])([H:16])[C:7]1)([H:8])([H:9])[H:10]"
C       -2.20362007      -0.43992502       0.32933286
C       -0.92775271      -0.10454042      -0.41528444
O       -0.50205538       1.20045322      -0.02592746
C        0.82964609       1.39612589      -0.45240252
C        1.62761402       0.12560309      -0.22951948
C        1.11732222      -0.79179955       0.86784419
C        0.17668362      -1.09263615      -0.21668664
H       -2.95315918       0.32774947       0.13599100
H       -2.02783100      -0.47392765       1.40536455
H       -2.58395638      -1.40910322       0.00778718
H       -1.13547745      -0.12226765      -1.50071754
H        0.82359246       1.63864778      -1.52562475
H        1.21847744       2.26138402       0.08618509
H        2.69610969       0.29713632      -0.14138045
H        0.60267746      -0.35816926       1.72777499
H        1.76506585      -1.61334854       1.15785693
H        1.47666332      -0.84138230      -1.21059350
17
Frame=13 idx=006888 GeodesicLength=0.8571365343846415 rxn_smarts="[C:1]([C@@:2]1([H:11])[O:3][C:4]([H:12])([H:13])[C@@:5]2([H:14])[C:6]([H:15])([H:16])[C@@:7]12[H:17])([H:8])([H:9])[H:10]>>[C:1]([C@@:2]1([H:11])[O:3][C:4]([H:12])([H:13])[C:5]([H:14])([H:17])[C:6]([H:15])([H:16])[C:7]1)([H:8])([H:9])[H:10]"
C       -2.20622574      -0.43514821       0.33179918
C       -0.93014448      -0.10064676      -0.41213588
O       -0.50301704       1.20371040      -0.02426855
C        0.82779218       1.39773478      -0.45544747
C        1.63163435       0.13310058      -0.22195129
C        1.12307559      -0.79689879       0.86377061
C        0.17989086      -1.08218463      -0.22259798
H       -2.95655774       0.33130104       0.13651913
H       -2.03158751      -0.46632498       1.40806055
H       -2.58456049      -1.40589299       0.01254761
H       -1.13796182      -0.12048454      -1.49819293
H        0.81583098       1.62534615      -1.53207847
H        1.21392710       2.27306373       0.06834384
H        2.69598668       0.31896839      -0.11657973
H        0.59846737      -0.38787484       1.73011161
H        1.76797210      -1.62469361       1.14224108
H        1.49547761      -0.86307575      -1.21014132
17
Frame=14 idx=006888 GeodesicLength=0.9231640560908937 rxn_smarts="[C:1]([C@@:2]1([H:11])[O:3][C:4]([H:12])([H:13])[C@@:5]2([H:14])[C:6]([H:15])([H:16])[C@@:7]12[H:17])([H:8])([H:9])[H:10]>>[C:1]([C@@:2]1([H:11])[O:3][C:4]([H:12])([H:13])[C:5]([H:14])([H:17])[C:6]([H:15])([H:16])[C:7]1)([H:8])([H:9])[H:10]"
C       -2.20870944      -0.43032941       0.33436849
C       -0.93248868      -0.09669550      -0.40900207
O       -0.50399324       1.20711425      -0.02280832
C        0.82597651       1.39946951      -0.45852104
C        1.63559678       0.14084188      -0.21408424
C        1.12875154      -0.80195635       0.85957342
C        0.18325220      -1.07150232      -0.22870175
H       -2.95990029       0.33481872       0.13714159
H       -2.03512233      -0.45856714       1.41083813
H       -2.58497033      -1.40269867       0.01754039
H       -1.14051858      -0.11864298      -1.49566039
H        0.80835592       1.61183510      -1.53838199
H        1.20924655       2.28475511       0.05015060
H        2.69528990       0.34094853      -0.09115502
H        0.59415245      -0.41831840       1.73181015
H        1.77090247      -1.63579424       1.12624396
H        1.51417855      -0.88527808      -1.20935189
17
Frame=15 idx=006888 GeodesicLength=0.9892125034811022 rxn_smarts="[C:1]([C@@:2]1([H:11])[O:3][C:4]([H:12])([H:13])[C@@:5]2([H:14])[C:6]([H:15])([H:16])[C@@:7]12[H:17])([H:8])([H:9])[H:10]>>[C:1]([C@@:2]1([H:11])[O:3][C:4]([H:12])([H:13])[C:5]([H:14])([H:17])[C:6]([H:15])([H:16])[C:7]1)([H:8])([H:9])[H:10]"
C       -2.21106475      -0.42546785       0.33704186
C       -0.93477840      -0.09268948      -0.40588427
O       -0.50498729       1.21066845      -0.02156027
C        0.82420286       1.40133418      -0.46162014
C        1.63949457       0.14883437      -0.20590118
C        1.13435372      -0.80696771       0.85525189
C        0.18677043      -1.06058572      -0.23498947
H       -2.96318376       0.33829733       0.13785120
H       -2.03842836      -0.45064167       1.41369814
H       -2.58517495      -1.39952312       0.02277694
H       -1.14313987      -0.11675287      -1.49312104
H        0.80118369       1.59812107      -1.54452378
H        1.20444138       2.29644718       0.03161203
H        2.69399171       0.36308275      -0.06507618
H        0.58974315      -0.44950737       1.73282218
H        1.77387368      -1.64663054       1.10986866
H        1.53270220      -0.90801900      -1.20824657
17
Frame=16 idx=006888 GeodesicLength=1.0552745550805576 rxn_smarts="[C:1]([C@@:2]1([H:11])[O:3][C:4]([H:12])([H:13])[C@@:5]2([H:14])[C:6]([H:15])([H:16])[C@@:7]12[H:17])([H:8])([H:9])[H:10]>>[C:1]([C@@:2]1([H:11])[O:3][C:4]([H:12])([H:13])[C:5]([H:14])([H:17])[C:6]([H:15])([H:16])[C:7]1)([H:8])([H:9])[H:10]"
C       -2.21328493      -0.42056226       0.33982138
C       -0.93700672      -0.08863159      -0.40278385
O       -0.50600250       1.21437721      -0.02053929
C        0.82247566       1.40333224      -0.46474276
C        1.64331971       0.15708474      -0.19738509
C        1.13988688      -0.81192787       0.85080462
C        0.19044785      -1.04943112      -0.24145239
H       -2.96640488       0.34173181       0.13864119
H       -2.04149769      -0.44253433       1.41664237
H       -2.58516324      -1.39636927       0.02827121
H       -1.14581795      -0.11482524      -1.49057602
H        0.79433169       1.58420892      -1.55049330
H        1.19951910       2.30812799       0.01273196
H        2.69205608       0.38537919      -0.03830007
H        0.58525128      -0.48145043       1.73309504
H        1.77690519      -1.65718286       1.09311669
H        1.55098447      -0.93132714      -1.20685170
