14
Frame=0 idx=010669 GeodesicLength=0.0 rxn_smarts="[O:1](/[N:2]=[C:3]1/[C:4]([H:9])([H:10])[C:5]([H:11])([H:12])[C@:6]1([O:7][H:14])[H:13])[H:8]>>[O:1]([N:2]=[C:3]=[C:4]([C:5]([C:6]([O:7][H:14])([H:9])[H:13])([H:11])[H:12])[H:10])[H:8]"
O        2.14402467       1.31232269       0.09513456
N        1.70162891       0.35951480      -0.86730287
C        0.65463779      -0.24972376      -0.31899450
C       -0.16462417      -1.37306645      -0.70051206
C       -1.40861404      -0.91435747       0.00589907
C       -0.74438071       0.43310897       0.21366997
O       -0.74831621       0.94037358       1.49682110
H        2.92974476       1.67172853      -0.31838720
H        0.86932129      -0.69270801       0.69563037
H       -0.07290692      -2.05438966      -1.53895854
H       -1.71225904      -1.45525693       0.90443092
H       -2.27424748      -0.83443393      -0.65822687
H       -1.02999311       1.16892161      -0.53976042
H       -0.14401575       1.68796600       1.53055651
14
Frame=1 idx=010669 GeodesicLength=0.13822599870218144 rxn_smarts="[O:1](/[N:2]=[C:3]1/[C:4]([H:9])([H:10])[C:5]([H:11])([H:12])[C@:6]1([O:7][H:14])[H:13])[H:8]>>[O:1]([N:2]=[C:3]=[C:4]([C:5]([C:6]([O:7][H:14])([H:9])[H:13])([H:11])[H:12])[H:10])[H:8]"
O        2.15401076       1.31206213       0.08134726
N        1.71207391       0.35911273      -0.87882745
C        0.66300247      -0.24628326      -0.34574571
C       -0.15345952      -1.37923017      -0.68985856
C       -1.40474917      -0.91318631       0.00196648
C       -0.74366221       0.43362445       0.22370485
O       -0.76685388       0.94228036       1.50726493
H        2.94094530       1.67005036      -0.33134659
H        0.84067470      -0.69862621       0.70927925
H       -0.07145415      -2.05412617      -1.53471752
H       -1.71085243      -1.45287327       0.90030822
H       -2.26841292      -0.83357062      -0.66397989
H       -1.03047684       1.17264479      -0.52719851
H       -0.16078602       1.68812120       1.54780324
14
Frame=2 idx=010669 GeodesicLength=0.2756244245401136 rxn_smarts="[O:1](/[N:2]=[C:3]1/[C:4]([H:9])([H:10])[C:5]([H:11])([H:12])[C@:6]1([O:7][H:14])[H:13])[H:8]>>[O:1]([N:2]=[C:3]=[C:4]([C:5]([C:6]([O:7][H:14])([H:9])[H:13])([H:11])[H:12])[H:10])[H:8]"
O        2.16391698       1.31202205       0.06640864
N        1.72202224       0.35862165      -0.89101564
C        0.67140312      -0.24313986      -0.37228303
C       -0.14195746      -1.38490915      -0.67882334
C       -1.40088686      -0.91147902      -0.00255627
C       -0.74254869       0.43419556       0.23435799
O       -0.78640264       0.94368477       1.51827317
H        2.95169304       1.66871236      -0.34606732
H        0.81215162      -0.70457218       0.72331731
H       -0.06910624      -2.05530154      -1.52862583
H       -1.71045825      -1.45028721       0.89505087
H       -2.26200178      -0.83151560      -0.67099085
H       -1.02988190       1.17682384      -0.51388519
H       -0.17794317       1.68714434       1.56683951
14
Frame=3 idx=010669 GeodesicLength=0.4124728770356744 rxn_smarts="[O:1](/[N:2]=[C:3]1/[C:4]([H:9])([H:10])[C:5]([H:11])([H:12])[C@:6]1([O:7][H:14])[H:13])[H:8]>>[O:1]([N:2]=[C:3]=[C:4]([C:5]([C:6]([O:7][H:14])([H:9])[H:13])([H:11])[H:12])[H:10])[H:8]"
O        2.17374886       1.31216765       0.05037323
N        1.73151609       0.35811547      -0.90394658
C        0.67978008      -0.24020189      -0.39885610
C       -0.13011998      -1.39009313      -0.66740147
C       -1.39697108      -0.90925633      -0.00760757
C       -0.74107038       0.43482195       0.24560770
O       -0.80695257       0.94461946       1.52974547
H        2.96212526       1.66758197      -0.36232595
H        0.78371404      -0.71062448       0.73785426
H       -0.06595080      -2.05779171      -1.52074539
H       -1.71093423      -1.44751021       0.88874142
H       -2.25500022      -0.82835186      -0.67912750
H       -1.02830405       1.18142089      -0.49984983
H       -0.19558103       1.68510221       1.58753828
14
Frame=4 idx=010669 GeodesicLength=0.5490668439442778 rxn_smarts="[O:1](/[N:2]=[C:3]1/[C:4]([H:9])([H:10])[C:5]([H:11])([H:12])[C@:6]1([O:7][H:14])[H:13])[H:8]>>[O:1]([N:2]=[C:3]=[C:4]([C:5]([C:6]([O:7][H:14])([H:9])[H:13])([H:11])[H:12])[H:10])[H:8]"
O        2.18350558       1.31245118       0.03330702
N        1.74058085       0.35768331      -0.91771872
C        0.68804012      -0.23735380      -0.42576906
C       -0.11793954      -1.39475291      -0.65560260
C       -1.39294180      -0.90653697      -0.01312407
C       -0.73925037       0.43550043       0.25742730
O       -0.82847577       0.94511943       1.54157185
H        2.97238919       1.66650608      -0.37986716
H        0.75530968      -0.71687293       0.75299141
H       -0.06205191      -2.06146673      -1.51108005
H       -1.71212191      -1.44454968       0.88146435
H       -2.24739961      -0.82416334      -0.68824383
H       -1.02585318       1.18639248      -0.48511558
H       -0.21379133       1.68204345       1.60975914
14
Frame=5 idx=010669 GeodesicLength=0.6856771083227069 rxn_smarts="[O:1](/[N:2]=[C:3]1/[C:4]([H:9])([H:10])[C:5]([H:11])([H:12])[C@:6]1([O:7][H:14])[H:13])[H:8]>>[O:1]([N:2]=[C:3]=[C:4]([C:5]([C:6]([O:7][H:14])([H:9])[H:13])([H:11])[H:12])[H:10])[H:8]"
O        2.19322557       1.31273122       0.01533685
N        1.74926126       0.35735726      -0.93239514
C        0.69606345      -0.23447594      -0.45335452
C       -0.10539833      -1.39884195      -0.64343634
C       -1.38875162      -0.90332657      -0.01905320
C       -0.73708932       0.43624213       0.26979459
O       -0.85092222       0.94521654       1.55366032
H        2.98249549       1.66544629      -0.39851325
H        0.72687374      -0.72342365       0.76885233
H       -0.05741958      -2.06626937      -1.49965524
H       -1.71389173      -1.44141041       0.87329327
H       -2.23920832      -0.81901305      -0.69821820
H       -1.02261687       1.19172223      -0.46969544
H       -0.23262151       1.67804527       1.63338397
14
Frame=6 idx=010669 GeodesicLength=0.822492601755024 rxn_smarts="[O:1](/[N:2]=[C:3]1/[C:4]([H:9])([H:10])[C:5]([H:11])([H:12])[C@:6]1([O:7][H:14])[H:13])[H:8]>>[O:1]([N:2]=[C:3]=[C:4]([C:5]([C:6]([O:7][H:14])([H:9])[H:13])([H:11])[H:12])[H:10])[H:8]"
O        2.20293309       1.31288275      -0.00343685
N        1.75754670       0.35722484      -0.94808948
C        0.70371365      -0.23144238      -0.48196603
C       -0.09245425      -1.40229229      -0.63091081
C       -1.38433016      -0.89963432      -0.02533950
C       -0.73458008       0.43704038       0.28268904
O       -0.87425738       0.94494408       1.56590388
H        2.99252555       1.66428592      -0.41805371
H        0.69829999      -0.73040035       0.78555784
H       -0.05207819      -2.07206068      -1.48641056
H       -1.71608127      -1.43809570       0.86429393
H       -2.23040034      -0.81296617      -0.70891375
H       -1.01868079       1.19736647      -0.45359911
H       -0.25215652       1.67314744       1.65827512
14
Frame=7 idx=010669 GeodesicLength=0.9597438562579587 rxn_smarts="[O:1](/[N:2]=[C:3]1/[C:4]([H:9])([H:10])[C:5]([H:11])([H:12])[C@:6]1([O:7][H:14])[H:13])[H:8]>>[O:1]([N:2]=[C:3]=[C:4]([C:5]([C:6]([O:7][H:14])([H:9])[H:13])([H:11])[H:12])[H:10])[H:8]"
O        2.21268846       1.31268190      -0.02286633
N        1.76542996       0.35734470      -0.96490722
C        0.71081825      -0.22810227      -0.51201462
C       -0.07904023      -1.40500879      -0.61802623
C       -1.37961204      -0.89545678      -0.03193944
C       -0.73169435       0.43790469       0.29609729
O       -0.89842806       0.94433394       1.57821538
H        3.00246263       1.66299293      -0.43833398
H        0.66944558      -0.73794120       0.80326521
H       -0.04599205      -2.07878546      -1.47129354
H       -1.71855241      -1.43460998       0.85451913
H       -2.22096240      -0.80607769      -0.72021997
H       -1.01411912       1.20330824      -0.43682052
H       -0.27244422       1.66741577       1.68432484
14
Frame=8 idx=010669 GeodesicLength=1.0975474276380048 rxn_smarts="[O:1](/[N:2]=[C:3]1/[C:4]([H:9])([H:10])[C:5]([H:11])([H:12])[C@:6]1([O:7][H:14])[H:13])[H:8]>>[O:1]([N:2]=[C:3]=[C:4]([C:5]([C:6]([O:7][H:14])([H:9])[H:13])([H:11])[H:12])[H:10])[H:8]"
O        2.22257165       1.31183721      -0.04278092
N        1.77287910       0.35776682      -0.98295971
C        0.71719047      -0.22432784      -0.54391426
C       -0.06506521      -1.40686748      -0.60479419
C       -1.37452267      -0.89078210      -0.03881945
C       -0.72837643       0.43883311       0.31000964
O       -0.92338917       0.94341884       1.59049529
H        3.01220490       1.66158251      -0.45926438
H        0.64012042      -0.74622966       0.82215855
H       -0.03909584      -2.08631659      -1.45416957
H       -1.72116762      -1.43094623       0.84399977
H       -2.21086220      -0.79837758      -0.73203296
H       -1.00895671       1.20952589      -0.41935454
H       -0.29353070       1.66088311       1.71142674
14
Frame=9 idx=010669 GeodesicLength=1.236617801850829 rxn_smarts="[O:1](/[N:2]=[C:3]1/[C:4]([H:9])([H:10])[C:5]([H:11])([H:12])[C@:6]1([O:7][H:14])[H:13])[H:8]>>[O:1]([N:2]=[C:3]=[C:4]([C:5]([C:6]([O:7][H:14])([H:9])[H:13])([H:11])[H:12])[H:10])[H:8]"
O        2.23262174       1.31013282      -0.06331577
N        1.77951726       0.35896825      -1.00263715
C        0.72239017      -0.21962684      -0.57835179
C       -0.05025171      -1.40765483      -0.59091098
C       -1.36893393      -0.88556103      -0.04600357
C       -0.72451082       0.43982784       0.32449154
O       -0.94910115       0.94215292       1.60271783
H        3.02212665       1.65946297      -0.48071995
H        0.60984826      -0.75554533       0.84243503
H       -0.03089059      -2.09474543      -1.43455938
H       -1.72384874      -1.42707093       0.83259795
H       -2.19994095      -0.78988043      -0.74440587
H       -1.00344205       1.21607357      -0.40097896
H       -0.31558414       1.65346646       1.73964106
14
Frame=10 idx=010669 GeodesicLength=1.3763707669773493 rxn_smarts="[O:1](/[N:2]=[C:3]1/[C:4]([H:9])([H:10])[C:5]([H:11])([H:12])[C@:6]1([O:7][H:14])[H:13])[H:8]>>[O:1]([N:2]=[C:3]=[C:4]([C:5]([C:6]([O:7][H:14])([H:9])[H:13])([H:11])[H:12])[H:10])[H:8]"
O        2.24289630       1.30708657      -0.08413209
N        1.78539359       0.36070740      -1.02389935
C        0.72632751      -0.21419664      -0.61556646
C       -0.03450639      -1.40709967      -0.57658652
C       -1.36277093      -0.87979299      -0.05344529
C       -0.72004696       0.44090996       0.33950219
O       -0.97554565       0.94064757       1.61473141
H        3.03170210       1.65700757      -0.50273236
H        0.57847941      -0.76605476       0.86442516
H       -0.02145201      -2.10368242      -1.41250022
H       -1.72639351      -1.42302814       0.82041544
H       -2.18821677      -0.78061975      -0.75717069
H       -0.99734211       1.22287976      -0.38185784
H       -0.33852459       1.64523556       1.76881662
14
Frame=11 idx=010669 GeodesicLength=1.5166314344229623 rxn_smarts="[O:1](/[N:2]=[C:3]1/[C:4]([H:9])([H:10])[C:5]([H:11])([H:12])[C@:6]1([O:7][H:14])[H:13])[H:8]>>[O:1]([N:2]=[C:3]=[C:4]([C:5]([C:6]([O:7][H:14])([H:9])[H:13])([H:11])[H:12])[H:10])[H:8]"
O        2.25340842       1.30234859      -0.10519178
N        1.79023776       0.36313888      -1.04699118
C        0.72876178      -0.20792525      -0.65593447
C       -0.01759780      -1.40491328      -0.56174801
C       -1.35592366      -0.87343585      -0.06115180
C       -0.71487558       0.44208299       0.35508444
O       -1.00271124       0.93892875       1.62645731
H        3.04083767       1.65407014      -0.52531075
H        0.54562907      -0.77804709       0.88845686
H       -0.01048454      -2.11297211      -1.38774341
H       -1.72869663      -1.41881713       0.80738554
H       -2.17559045      -0.77057801      -0.77031721
H       -0.99058273       1.22994952      -0.36194316
H       -0.36241207       1.63616986       1.79894761
14
Frame=12 idx=010669 GeodesicLength=1.6572644481108316 rxn_smarts="[O:1](/[N:2]=[C:3]1/[C:4]([H:9])([H:10])[C:5]([H:11])([H:12])[C@:6]1([O:7][H:14])[H:13])[H:8]>>[O:1]([N:2]=[C:3]=[C:4]([C:5]([C:6]([O:7][H:14])([H:9])[H:13])([H:11])[H:12])[H:10])[H:8]"
O        2.26406264       1.29573739      -0.12667805
N        1.79359652       0.36665629      -1.07232486
C        0.72943614      -0.20067002      -0.69981564
C        0.00079141      -1.40072570      -0.54626141
C       -1.34825225      -0.86644550      -0.06914435
C       -0.70888837       0.44333818       0.37132465
O       -1.03064548       0.93699769       1.63783043
H        3.04970585       1.65011684      -0.54841741
H        0.51073080      -0.79186632       0.91489558
H        0.00246695      -2.12238686      -1.35988100
H       -1.73066489      -1.41445931       0.79339409
H       -2.16191035      -0.75973746      -0.78386867
H       -0.98306916       1.23726554      -0.34114140
H       -0.38735982       1.62617926       1.83008805
14
Frame=13 idx=010669 GeodesicLength=1.797983742582686 rxn_smarts="[O:1](/[N:2]=[C:3]1/[C:4]([H:9])([H:10])[C:5]([H:11])([H:12])[C@:6]1([O:7][H:14])[H:13])[H:8]>>[O:1]([N:2]=[C:3]=[C:4]([C:5]([C:6]([O:7][H:14])([H:9])[H:13])([H:11])[H:12])[H:10])[H:8]"
O        2.27457166       1.28728305      -0.14904101
N        1.79475126       0.37177720      -1.10045318
C        0.72805663      -0.19238014      -0.74740595
C        0.02108144      -1.39402330      -0.52990360
C       -1.33959013      -0.85877155      -0.07748211
C       -0.70198131       0.44468140       0.38836769
O       -1.05946591       0.93485402       1.64881506
H        3.05866470       1.64415547      -0.57203893
H        0.47316261      -0.80788523       0.94425028
H        0.01810737      -2.13157768      -1.32848492
H       -1.73223677      -1.41000840       0.77823925
H       -2.14695778      -0.74806929      -0.79795209
H       -0.97463853       1.24483869      -0.31932543
H       -0.41352523       1.61512576       1.86241493
14
Frame=14 idx=010669 GeodesicLength=1.9381764045903174 rxn_smarts="[O:1](/[N:2]=[C:3]1/[C:4]([H:9])([H:10])[C:5]([H:11])([H:12])[C@:6]1([O:7][H:14])[H:13])[H:8]>>[O:1]([N:2]=[C:3]=[C:4]([C:5]([C:6]([O:7][H:14])([H:9])[H:13])([H:11])[H:12])[H:10])[H:8]"
O        2.28442712       1.27769179      -0.17308938
N        1.79306692       0.37920967      -1.13194707
C        0.72454885      -0.18307563      -0.79867875
C        0.04363632      -1.38440277      -0.51240266
C       -1.32978794      -0.85035789      -0.08620691
C       -0.69407839       0.44603700       0.40644152
O       -1.08933369       0.93238973       1.65940986
H        3.06848775       1.63486113      -0.59607776
H        0.43216504      -0.82650817       0.97668182
H        0.03700152      -2.14028793      -1.29295305
H       -1.73343773      -1.40550259       0.76166808
H       -2.13049134      -0.73546703      -0.81267210
H       -0.96499669       1.25264340      -0.29629460
H       -0.44120775       1.60276928       1.89612100
14
Frame=15 idx=010669 GeodesicLength=2.077428240157455 rxn_smarts="[O:1](/[N:2]=[C:3]1/[C:4]([H:9])([H:10])[C:5]([H:11])([H:12])[C@:6]1([O:7][H:14])[H:13])[H:8]>>[O:1]([N:2]=[C:3]=[C:4]([C:5]([C:6]([O:7][H:14])([H:9])[H:13])([H:11])[H:12])[H:10])[H:8]"
O        2.29262296       1.26841047      -0.20018305
N        1.78750764       0.39000224      -1.16762319
C        0.71870218      -0.17274199      -0.85351302
C        0.06895810      -1.37122117      -0.49337807
C       -1.31864972      -0.84118834      -0.09535600
C       -0.68518921       0.44733479       0.42585036
O       -1.12051120       0.92944485       1.66966364
H        3.08081283       1.61961060      -0.62015027
H        0.38696395      -0.84807628       1.01237434
H        0.06007676      -2.14806535      -1.25264654
H       -1.73421951      -1.40109798       0.74338574
H       -2.11222663      -0.72192893      -0.82815210
H       -0.95397596       1.26065186      -0.27176238
H       -0.47087218       1.58886525       1.93149055
14
Frame=16 idx=010669 GeodesicLength=2.215503653200472 rxn_smarts="[O:1](/[N:2]=[C:3]1/[C:4]([H:9])([H:10])[C:5]([H:11])([H:12])[C@:6]1([O:7][H:14])[H:13])[H:8]>>[O:1]([N:2]=[C:3]=[C:4]([C:5]([C:6]([O:7][H:14])([H:9])[H:13])([H:11])[H:12])[H:10])[H:8]"
O        2.29759669       1.26197461      -0.23224491
N        1.77696271       0.40539454      -1.20840140
C        0.71039200      -0.16144420      -0.91167978
C        0.09758081      -1.35373221      -0.47242611
C       -1.30594626      -0.83130009      -0.10492200
C       -0.67543378       0.44848088       0.44697471
O       -1.15339136       0.92579058       1.67966721
H        3.09809634       1.59454850      -0.64352268
H        0.33682731      -0.87276139       1.05119191
H        0.08827803      -2.15427180      -1.20684451
H       -1.73442171      -1.39706416       0.72311859
H       -2.09188267      -0.70753408      -0.84442017
H       -0.94145217       1.26882666      -0.24538888
H       -0.50320594       1.57309216       1.96889801
