19
Frame=0 idx=010811 GeodesicLength=0.0 rxn_smarts="[C:1]([C:2]([C:3]([C:4]([C:5]#[C:6][C:7]([H:17])([H:18])[H:19])([H:15])[H:16])([H:13])[H:14])([H:11])[H:12])([H:8])([H:9])[H:10]>>[C:1]([C:2]([C:3]([C:4]([C:6](=[C:5])[C:7]([H:17])([H:18])[H:19])([H:15])[H:16])([H:13])[H:14])([H:11])[H:12])([H:8])([H:9])[H:10]"
C       -2.83556975       0.87210345       0.21515957
C       -1.63110407       0.37144650      -0.57103914
C       -0.60375083      -0.32856920       0.31378594
C        0.57768518      -0.85502752      -0.47729591
C        1.48674660      -1.97127603       0.56510760
C        2.17284975      -0.94526357       0.34915060
C        3.14761558       0.14601548       0.28469172
H       -3.34700177       0.04666228       0.71550639
H       -2.53446511       1.58796749       0.98385102
H       -3.55858018       1.36773322      -0.43488317
H       -1.96530315      -0.31890344      -1.35262398
H       -1.15579292       1.21184401      -1.08902029
H       -1.06734549      -1.16117780       0.84784890
H       -0.24245215       0.36400841       1.08096720
H        0.30070938      -1.60837669      -1.21054214
H        1.01910636      -0.04151636      -1.06880971
H        2.72442037       1.08323140       0.65089751
H        3.52329962       0.29613232      -0.72895195
H        3.98893262      -0.11703401       0.92619978
19
Frame=1 idx=010811 GeodesicLength=0.05255562342257471 rxn_smarts="[C:1]([C:2]([C:3]([C:4]([C:5]#[C:6][C:7]([H:17])([H:18])[H:19])([H:15])[H:16])([H:13])[H:14])([H:11])[H:12])([H:8])([H:9])[H:10]>>[C:1]([C:2]([C:3]([C:4]([C:6](=[C:5])[C:7]([H:17])([H:18])[H:19])([H:15])[H:16])([H:13])[H:14])([H:11])[H:12])([H:8])([H:9])[H:10]"
C       -2.83830903       0.87371493       0.21947554
C       -1.64517604       0.36063993      -0.57588168
C       -0.59997273      -0.31666853       0.30557682
C        0.57335610      -0.85162514      -0.49344833
C        1.49792491      -1.97526510       0.53072553
C        2.18037878      -0.94544946       0.33046360
C        3.16021303       0.14301715       0.30816364
H       -3.33684717       0.05807994       0.74815963
H       -2.52723353       1.60899184       0.96553879
H       -3.57543712       1.35000055      -0.42918298
H       -1.98990586      -0.34784771      -1.33642410
H       -1.18218054       1.19110872      -1.12026463
H       -1.05182209      -1.14054357       0.86296879
H       -0.23124941       0.39232110       1.05396555
H        0.28247726      -1.60662339      -1.22042402
H        1.00712518      -0.04328011      -1.09742770
H        2.73840174       1.06934753       0.70243457
H        3.54044305       0.32426151      -0.69866825
H        3.99781348      -0.14418019       0.94424923
19
Frame=2 idx=010811 GeodesicLength=0.10499247397909411 rxn_smarts="[C:1]([C:2]([C:3]([C:4]([C:5]#[C:6][C:7]([H:17])([H:18])[H:19])([H:15])[H:16])([H:13])[H:14])([H:11])[H:12])([H:8])([H:9])[H:10]>>[C:1]([C:2]([C:3]([C:4]([C:6](=[C:5])[C:7]([H:17])([H:18])[H:19])([H:15])[H:16])([H:13])[H:14])([H:11])[H:12])([H:8])([H:9])[H:10]"
C       -2.84107585       0.87524484       0.22371639
C       -1.65938095       0.34964212      -0.58042730
C       -0.59600096      -0.30419150       0.29688383
C        0.56900405      -0.84797245      -0.50995536
C        1.50951032      -1.97814484       0.49594717
C        2.18805746      -0.94458786       0.31135621
C        3.17285035       0.13952805       0.33220035
H       -3.32588000       0.07011852       0.78057364
H       -2.52063056       1.62973254       0.94626250
H       -3.59246988       1.33176186      -0.42279808
H       -2.01410640      -0.37698743      -1.31898453
H       -1.20953740       1.16949399      -1.15120330
H       -1.03525896      -1.11870038       0.87782886
H       -0.22020843       0.42142313       1.02552562
H        0.26414905      -1.60516680      -1.22974450
H        0.99439677      -0.04530247      -1.12717111
H        2.75246961       1.05354742       0.75552839
H        3.55711767       0.35300146      -0.66675156
H        4.00699412      -0.17244018       0.96121277
19
Frame=3 idx=010811 GeodesicLength=0.15718110450365483 rxn_smarts="[C:1]([C:2]([C:3]([C:4]([C:5]#[C:6][C:7]([H:17])([H:18])[H:19])([H:15])[H:16])([H:13])[H:14])([H:11])[H:12])([H:8])([H:9])[H:10]>>[C:1]([C:2]([C:3]([C:4]([C:6](=[C:5])[C:7]([H:17])([H:18])[H:19])([H:15])[H:16])([H:13])[H:14])([H:11])[H:12])([H:8])([H:9])[H:10]"
C       -2.84384995       0.87668570       0.22785799
C       -1.67359036       0.33856777      -0.58460636
C       -0.59189729      -0.29123658       0.28774962
C        0.56460428      -0.84415469      -0.52669965
C        1.52156733      -1.97981994       0.46097961
C        2.19586084      -0.94253410       0.29197098
C        3.18548414       0.13560094       0.35662774
H       -3.31426171       0.08266643       0.81235861
H       -2.51475927       1.64992701       0.92628629
H       -3.60945259       1.31326649      -0.41575518
H       -2.03763803      -0.40600017      -1.30045278
H       -1.23760200       1.14719451      -1.18146757
H       -1.01781850      -1.09577779       0.89224684
H       -0.20948867       0.45105371       0.99582479
H        0.24574878      -1.60418169      -1.23827254
H        0.98080219      -0.04776394      -1.15800860
H        2.76655909       1.03588427       0.80965674
H        3.57334635       0.38208119      -0.63329071
H        4.01638536      -0.20145911       0.97699419
19
Frame=4 idx=010811 GeodesicLength=0.20913346088126722 rxn_smarts="[C:1]([C:2]([C:3]([C:4]([C:5]#[C:6][C:7]([H:17])([H:18])[H:19])([H:15])[H:16])([H:13])[H:14])([H:11])[H:12])([H:8])([H:9])[H:10]>>[C:1]([C:2]([C:3]([C:4]([C:6](=[C:5])[C:7]([H:17])([H:18])[H:19])([H:15])[H:16])([H:13])[H:14])([H:11])[H:12])([H:8])([H:9])[H:10]"
C       -2.84665257       0.87804495       0.23190100
C       -1.68778836       0.32744191      -0.58841555
C       -0.58769512      -0.27782525       0.27815793
C        0.56016716      -0.84017973      -0.54365688
C        1.53415474      -1.98024821       0.42587125
C        2.20379369      -0.93920047       0.27240743
C        3.19813169       0.13122299       0.38142662
H       -3.30205708       0.09570246       0.84344448
H       -2.50965353       1.66953168       0.90568282
H       -3.62636139       1.29459395      -0.40805277
H       -2.06045179      -0.43481133      -1.28087318
H       -1.26633342       1.12424542      -1.21098844
H       -0.99955305      -1.07179526       0.90612701
H       -0.19917753       0.48113437       0.96488001
H        0.22733657      -1.60369983      -1.24594023
H        0.96629113      -0.05072483      -1.18991561
H        2.78068887       1.01629801       0.86466913
H        3.58912646       0.41140281      -0.59824771
H        4.02603354      -0.23113364       0.99152269
19
Frame=5 idx=010811 GeodesicLength=0.2608453391983993 rxn_smarts="[C:1]([C:2]([C:3]([C:4]([C:5]#[C:6][C:7]([H:17])([H:18])[H:19])([H:15])[H:16])([H:13])[H:14])([H:11])[H:12])([H:8])([H:9])[H:10]>>[C:1]([C:2]([C:3]([C:4]([C:6](=[C:5])[C:7]([H:17])([H:18])[H:19])([H:15])[H:16])([H:13])[H:14])([H:11])[H:12])([H:8])([H:9])[H:10]"
C       -2.84946124       0.87934006       0.23585368
C       -1.70196205       0.31625332      -0.59185053
C       -0.58340089      -0.26395588       0.26807581
C        0.55569244      -0.83604633      -0.56083860
C        1.54731367      -1.97939798       0.39058141
C        2.21185677      -0.93452445       0.25267537
C        3.21076731       0.12638397       0.40660564
H       -3.28925070       0.10926747       0.87386293
H       -2.50528999       1.68858324       0.88444460
H       -3.64316512       1.27574226      -0.39968654
H       -2.08252497      -0.46343178      -1.26022260
H       -1.29571866       1.10060491      -1.23976323
H       -0.98046544      -1.04672121       0.91940566
H       -0.18931552       0.51164330       0.93264323
H        0.20894016      -1.60373426      -1.25270530
H        0.95080477      -0.05424233      -1.22288784
H        2.79482038       0.99464011       0.92056912
H        3.60443341       0.44098908      -0.56149112
H        4.03592564      -0.26139349       1.00472834
19
Frame=6 idx=010811 GeodesicLength=0.3123156048065678 rxn_smarts="[C:1]([C:2]([C:3]([C:4]([C:5]#[C:6][C:7]([H:17])([H:18])[H:19])([H:15])[H:16])([H:13])[H:14])([H:11])[H:12])([H:8])([H:9])[H:10]>>[C:1]([C:2]([C:3]([C:4]([C:6](=[C:5])[C:7]([H:17])([H:18])[H:19])([H:15])[H:16])([H:13])[H:14])([H:11])[H:12])([H:8])([H:9])[H:10]"
C       -2.85229137       0.88056485       0.23971496
C       -1.71609834       0.30501648      -0.59490130
C       -0.57904411      -0.24962832       0.25748978
C        0.55118410      -0.83172942      -0.57822273
C        1.56108110      -1.97721567       0.35510572
C        2.22003662      -0.92841536       0.23286279
C        3.22340933       0.12105450       0.43213404
H       -3.27588635       0.12334123       0.90357141
H       -2.50170948       1.70705421       0.86261474
H       -3.65984842       1.25672237      -0.39066653
H       -2.10380594      -0.49181600      -1.23852173
H       -1.32572896       1.07628827      -1.26773234
H       -0.96059974      -1.02054674       0.93200282
H       -0.17998757       0.54253653       0.89912327
H        0.19061689      -1.60426391      -1.25850950
H        0.93429148      -0.05834408      -1.25686589
H        2.80899846       0.97083159       0.97718750
H        3.61931634       0.47069700      -0.52295616
H        4.04606596      -0.29214752       1.01656915
19
Frame=7 idx=010811 GeodesicLength=0.36354763701625126 rxn_smarts="[C:1]([C:2]([C:3]([C:4]([C:5]#[C:6][C:7]([H:17])([H:18])[H:19])([H:15])[H:16])([H:13])[H:14])([H:11])[H:12])([H:8])([H:9])[H:10]>>[C:1]([C:2]([C:3]([C:4]([C:6](=[C:5])[C:7]([H:17])([H:18])[H:19])([H:15])[H:16])([H:13])[H:14])([H:11])[H:12])([H:8])([H:9])[H:10]"
C       -2.85517480       0.88170328       0.24348616
C       -1.73017777       0.29376467      -0.59755576
C       -0.57466080      -0.23484756       0.24639965
C        0.54665163      -0.82720303      -0.59577482
C        1.57549694      -1.97365014       0.31945328
C        2.22832311      -0.92079094       0.21307717
C        3.23608622       0.11520766       0.45796194
H       -3.26203658       0.13786350       0.93250197
H       -2.49898536       1.72489457       0.84027003
H       -3.67639663       1.23756536      -0.38101209
H       -2.12422182      -0.51988563      -1.21581992
H       -1.35631729       1.05135704      -1.29480899
H       -0.94002024      -0.99328433       0.94383968
H       -0.17129182       0.57375650       0.86436073
H        0.17243702      -1.60526415      -1.26328153
H        0.91670701      -0.06305586      -1.29177089
H        2.82325285       0.94485921       1.03424367
H        3.63389323       0.50029672      -0.48262396
H        4.05643509      -0.32328686       1.02705369
19
Frame=8 idx=010811 GeodesicLength=0.4145816223326425 rxn_smarts="[C:1]([C:2]([C:3]([C:4]([C:5]#[C:6][C:7]([H:17])([H:18])[H:19])([H:15])[H:16])([H:13])[H:14])([H:11])[H:12])([H:8])([H:9])[H:10]>>[C:1]([C:2]([C:3]([C:4]([C:6](=[C:5])[C:7]([H:17])([H:18])[H:19])([H:15])[H:16])([H:13])[H:14])([H:11])[H:12])([H:8])([H:9])[H:10]"
C       -2.85809120       0.88278283       0.24716828
C       -1.74421197       0.28245365      -0.59981325
C       -0.57025392      -0.21959042       0.23476075
C        0.54209734      -0.82243826      -0.61352440
C        1.59060448      -1.96865789       0.28350880
C        2.23671593      -0.91158689       0.19332239
C        3.24877867       0.10881249       0.48411369
H       -3.24765782       0.15294308       0.96075254
H       -2.49707853       1.74218999       0.81732684
H       -3.69282193       1.21819971      -0.37071457
H       -2.14379308      -0.54771880      -1.19204153
H       -1.38751620       1.02568766      -1.32105360
H       -0.91871101      -0.96485624       0.95487797
H       -0.16325838       0.60532467       0.82827005
H        0.15443986      -1.60669732      -1.26700810
H        0.89800548      -0.06841497      -1.32757902
H        2.83758911       0.91648278       1.09184630
H        3.64811910       0.52986394      -0.44029381
H        4.06704406      -0.35478002       1.03608067
19
Frame=9 idx=010811 GeodesicLength=0.4653455989766667 rxn_smarts="[C:1]([C:2]([C:3]([C:4]([C:5]#[C:6][C:7]([H:17])([H:18])[H:19])([H:15])[H:16])([H:13])[H:14])([H:11])[H:12])([H:8])([H:9])[H:10]>>[C:1]([C:2]([C:3]([C:4]([C:6](=[C:5])[C:7]([H:17])([H:18])[H:19])([H:15])[H:16])([H:13])[H:14])([H:11])[H:12])([H:8])([H:9])[H:10]"
C       -2.86109106       0.88374128       0.25073976
C       -1.75810920       0.27121118      -0.60165925
C       -0.56590965      -0.20392271       0.22264257
C        0.53752783      -0.81743804      -0.63132557
C        1.60641124      -1.96216555       0.24744852
C        2.24514934      -0.90071256       0.17390928
C        3.26152834       0.10186880       0.51042690
H       -3.23296861       0.16831030       0.98799261
H       -2.49612321       1.75870457       0.79408797
H       -3.70900436       1.19882072      -0.35986649
H       -2.16231789      -0.57502944      -1.16744095
H       -1.41910491       0.99957044      -1.34618366
H       -0.89688552      -0.93541504       0.96497722
H       -0.15606302       0.63704554       0.79109900
H        0.13673684      -1.60857347      -1.26951214
H        0.87814226      -0.07448960      -1.36407417
H        2.85207681       0.88599778       1.14930297
H        3.66212545       0.55886167      -0.39624511
H        4.07787930      -0.38638587       1.04368054
19
Frame=10 idx=010811 GeodesicLength=0.515997681981722 rxn_smarts="[C:1]([C:2]([C:3]([C:4]([C:5]#[C:6][C:7]([H:17])([H:18])[H:19])([H:15])[H:16])([H:13])[H:14])([H:11])[H:12])([H:8])([H:9])[H:10]>>[C:1]([C:2]([C:3]([C:4]([C:6](=[C:5])[C:7]([H:17])([H:18])[H:19])([H:15])[H:16])([H:13])[H:14])([H:11])[H:12])([H:8])([H:9])[H:10]"
C       -2.86407080       0.88466642       0.25425137
C       -1.77199347       0.25979308      -0.60310150
C       -0.56151500      -0.18766615       0.20985175
C        0.53296282      -0.81208271      -0.64943476
C        1.62297331      -1.95413590       0.21076401
C        2.25366932      -0.88814428       0.15453098
C        3.27421340       0.09426892       0.53717241
H       -3.21753541       0.18447027       1.01483698
H       -2.49592623       1.77487778       0.76998555
H       -3.72511458       1.17899063      -0.34828245
H       -2.18002765      -0.60233390      -1.14151571
H       -1.45146669       0.97240338      -1.37063749
H       -0.87419925      -0.90455195       0.97421445
H       -0.14957043       0.66927190       0.75231529
H        0.11932548      -1.61072291      -1.27100506
H        0.85710311      -0.08122321      -1.40142440
H        2.86655218       0.85259712       1.20747780
H        3.67572795       0.58785365      -0.34971444
H        4.08889194      -0.41833216       1.04971522
19
Frame=11 idx=010811 GeodesicLength=0.5665400755920864 rxn_smarts="[C:1]([C:2]([C:3]([C:4]([C:5]#[C:6][C:7]([H:17])([H:18])[H:19])([H:15])[H:16])([H:13])[H:14])([H:11])[H:12])([H:8])([H:9])[H:10]>>[C:1]([C:2]([C:3]([C:4]([C:6](=[C:5])[C:7]([H:17])([H:18])[H:19])([H:15])[H:16])([H:13])[H:14])([H:11])[H:12])([H:8])([H:9])[H:10]"
C       -2.86716659       0.88547753       0.25767343
C       -1.78580860       0.24833691      -0.60412263
C       -0.55718354      -0.17086876       0.19646855
C        0.52843302      -0.80632349      -0.66769075
C        1.64030342      -1.94448970       0.17364020
C        2.26222378      -0.87379846       0.13558387
C        3.28696701       0.08596634       0.56415965
H       -3.20166219       0.20112178       1.04094305
H       -2.49674037       1.79045350       0.74531108
H       -3.74112897       1.15886936      -0.33606070
H       -2.19672818      -0.62933730      -1.11451499
H       -1.48441433       0.94450089      -1.39412847
H       -0.85090254      -0.87242040       0.98245957
H       -0.14400705       0.70182676       0.71218073
H        0.10236913      -1.61307683      -1.27133018
H        0.83490059      -0.08859445      -1.43935859
H        2.88120578       0.81665063       1.26553316
H        3.68922873       0.61612411      -0.30105972
H        4.10011090      -0.45041842       1.05431275
19
Frame=12 idx=010811 GeodesicLength=0.6170259772376819 rxn_smarts="[C:1]([C:2]([C:3]([C:4]([C:5]#[C:6][C:7]([H:17])([H:18])[H:19])([H:15])[H:16])([H:13])[H:14])([H:11])[H:12])([H:8])([H:9])[H:10]>>[C:1]([C:2]([C:3]([C:4]([C:6](=[C:5])[C:7]([H:17])([H:18])[H:19])([H:15])[H:16])([H:13])[H:14])([H:11])[H:12])([H:8])([H:9])[H:10]"
C       -2.87037318       0.88618808       0.26098814
C       -1.79954737       0.23680500      -0.60471292
C       -0.55291864      -0.15347499       0.18246330
C        0.52395463      -0.80010679      -0.68609978
C        1.65843231      -1.93314380       0.13597766
C        2.27080216      -0.85763335       0.11713443
C        3.29975897       0.07690995       0.59139167
H       -3.18530516       0.21838116       1.06636746
H       -2.49860004       1.80549368       0.71995351
H       -3.75705637       1.13835204      -0.32321010
H       -2.21237296      -0.65610274      -1.08635272
H       -1.51797009       0.91572739      -1.41668956
H       -0.82698028      -0.83888412       0.98969509
H       -0.13942971       0.73476534       0.67061424
H        0.08594802      -1.61556657      -1.27044656
H        0.81151796      -0.09663852      -1.47780423
H        2.89604395       0.77784026       1.32357040
H        3.70251640       0.64370954      -0.25009459
H        4.11157940      -0.48262155       1.05725456
19
Frame=13 idx=010811 GeodesicLength=0.6674620166162712 rxn_smarts="[C:1]([C:2]([C:3]([C:4]([C:5]#[C:6][C:7]([H:17])([H:18])[H:19])([H:15])[H:16])([H:13])[H:14])([H:11])[H:12])([H:8])([H:9])[H:10]>>[C:1]([C:2]([C:3]([C:4]([C:6](=[C:5])[C:7]([H:17])([H:18])[H:19])([H:15])[H:16])([H:13])[H:14])([H:11])[H:12])([H:8])([H:9])[H:10]"
C       -2.87374233       0.88675694       0.26417358
C       -1.81317040       0.22524446      -0.60486012
C       -0.54878505      -0.13549082       0.16786842
C        0.51954442      -0.79337242      -0.70458119
C        1.67735506      -1.92001000       0.09780047
C        2.27934563      -0.83960880       0.09943778
C        3.31263254       0.06706082       0.61875232
H       -3.16860446       0.23614458       1.09096688
H       -2.50161635       1.81989058       0.69402401
H       -3.77287223       1.11745285      -0.30978927
H       -2.22684785      -0.68251336      -1.05712997
H       -1.55202113       0.88617299      -1.43819057
H       -0.80257827      -0.80396866       0.99584432
H       -0.13597596       0.76800854       0.62773482
H        0.07018467      -1.61809755      -1.26827243
H        0.78696739      -0.10535015      -1.51655579
H        2.91117596       0.73628905       1.38114951
H        3.71574853       0.67019989      -0.19696239
H        4.12325982      -0.51480893       1.05858962
19
Frame=14 idx=010811 GeodesicLength=0.7178744021645499 rxn_smarts="[C:1]([C:2]([C:3]([C:4]([C:5]#[C:6][C:7]([H:17])([H:18])[H:19])([H:15])[H:16])([H:13])[H:14])([H:11])[H:12])([H:8])([H:9])[H:10]>>[C:1]([C:2]([C:3]([C:4]([C:6](=[C:5])[C:7]([H:17])([H:18])[H:19])([H:15])[H:16])([H:13])[H:14])([H:11])[H:12])([H:8])([H:9])[H:10]"
C       -2.87734356       0.88714441       0.26721033
C       -1.82664283       0.21370723      -0.60456222
C       -0.54484599      -0.11691863       0.15272397
C        0.51522934      -0.78606266      -0.72305605
C        1.69706835      -1.90501078       0.05914877
C        2.28781258      -0.81972718       0.08274479
C        3.32564024       0.05638231       0.64612983
H       -3.15172190       0.25429815       1.11462057
H       -2.50591945       1.83355390       0.66763885
H       -3.78857349       1.09618652      -0.29587282
H       -2.24004493      -0.70845745      -1.02696629
H       -1.58645225       0.85594472      -1.45852670
H       -0.77784955      -0.76770052       1.00085625
H       -0.13377626       0.80148801       0.58367096
H        0.05521333      -1.62057703      -1.26472775
H        0.76128191      -0.11472346      -1.55540945
H        2.92669999       0.69215661       1.43785807
H        3.72909810       0.69519565      -0.14185480
H        4.13512638      -0.54687977       1.05837367
19
Frame=15 idx=010811 GeodesicLength=0.7684551724822293 rxn_smarts="[C:1]([C:2]([C:3]([C:4]([C:5]#[C:6][C:7]([H:17])([H:18])[H:19])([H:15])[H:16])([H:13])[H:14])([H:11])[H:12])([H:8])([H:9])[H:10]>>[C:1]([C:2]([C:3]([C:4]([C:6](=[C:5])[C:7]([H:17])([H:18])[H:19])([H:15])[H:16])([H:13])[H:14])([H:11])[H:12])([H:8])([H:9])[H:10]"
C       -2.88120162       0.88744491       0.27005217
C       -1.84002930       0.20206694      -0.60380254
C       -0.54108021      -0.09763603       0.13693709
C        0.51105625      -0.77810910      -0.74159579
C        1.71767044      -1.88807823       0.01979495
C        2.29625015      -0.79799780       0.06707793
C        3.33876334       0.04477125       0.67363353
H       -3.13451980       0.27325497       1.13757505
H       -2.51155104       1.84674356       0.64034067
H       -3.80430925       1.07431968      -0.28140484
H       -2.25202545      -0.73418207      -0.99551373
H       -1.62144040       0.82464070      -1.47790023
H       -0.75268313      -0.72977350       1.00477746
H       -0.13284746       0.83539777       0.53810837
H        0.04112946      -1.62292052      -1.25980500
H        0.73450940      -0.12479367      -1.59437365
H        2.94265933       0.64450852       1.49434177
H        3.74214595       0.71923491      -0.08423242
H        4.14750333      -0.57889227       1.05598920
19
Frame=16 idx=010811 GeodesicLength=0.8187892311002013 rxn_smarts="[C:1]([C:2]([C:3]([C:4]([C:5]#[C:6][C:7]([H:17])([H:18])[H:19])([H:15])[H:16])([H:13])[H:14])([H:11])[H:12])([H:8])([H:9])[H:10]>>[C:1]([C:2]([C:3]([C:4]([C:6](=[C:5])[C:7]([H:17])([H:18])[H:19])([H:15])[H:16])([H:13])[H:14])([H:11])[H:12])([H:8])([H:9])[H:10]"
C       -2.88523140       0.88744683       0.27261766
C       -1.85305375       0.19056454      -0.60262546
C       -0.53763398      -0.07777863       0.12073310
C        0.50694768      -0.76949283      -0.75984302
C        1.73879678      -1.86904744      -0.01974107
C        2.30430076      -0.77449539       0.05312062
C        3.35197785       0.03229569       0.70087701
H       -3.11732390       0.29233435       1.15914529
H       -2.51851973       1.85891984       0.61283690
H       -3.81962325       1.05210447      -0.26673968
H       -2.26238402      -0.75913986      -0.96350782
H       -1.65636632       0.79288357      -1.49582846
H       -0.72757018      -0.69050811       1.00743985
H       -0.13339970       0.86934106       0.49173720
H        0.02803097      -1.62502628      -1.25323560
H        0.70661814      -0.13562712      -1.63283822
H        2.95937947       0.59435784       1.54938108
H        3.75493700       0.74125938      -0.02506377
H        4.16011758      -0.61039191       1.05153439
