12
Frame=0 idx=002666 GeodesicLength=0.0 rxn_smarts="[C:1](/[N:2]=[C:3](\[N:4]([H:10])[H:11])[C:5](=[O:6])[H:12])([H:7])([H:8])[H:9]>>[C:1](=[N:2][C:3]([N+:4]([H:9])([H:10])[H:11])=[C:5]([O-:6])[H:12])([H:7])[H:8]"
C        1.72667065       0.35690040       0.45032113
N        0.64193029       1.05766162       0.03984267
C       -0.37768754       0.32215904      -0.29934191
N       -0.21663409      -1.06407991       0.02386030
C       -1.72966879       0.80341782      -0.42667860
O       -2.69194295       0.05920183      -0.43260079
H        2.13339861      -0.42396959      -0.19751821
H        2.50036131       0.93565105       0.94157842
H        0.72654027      -0.83021555       0.80399918
H       -1.11686416      -1.47572388       0.27545486
H        0.23104437      -1.64068337      -0.68111078
H       -1.82714796       1.89968049      -0.49780631
12
Frame=1 idx=002666 GeodesicLength=0.05172766738210871 rxn_smarts="[C:1](/[N:2]=[C:3](\[N:4]([H:10])[H:11])[C:5](=[O:6])[H:12])([H:7])([H:8])[H:9]>>[C:1](=[N:2][C:3]([N+:4]([H:9])([H:10])[H:11])=[C:5]([O-:6])[H:12])([H:7])[H:8]"
C        1.72739937       0.35860289       0.45237350
N        0.64564633       1.05618467       0.02619260
C       -0.37491813       0.31948198      -0.31088031
N       -0.22390198      -1.06600675       0.02081975
C       -1.72727174       0.80181565      -0.43170615
O       -2.69025313       0.05736139      -0.42063750
H        2.14281795      -0.41863669      -0.19498313
H        2.49545494       0.94274614       0.94630384
H        0.73249459      -0.83619514       0.81002223
H       -1.13262439      -1.46675702       0.26339000
H        0.23128415      -1.64732182      -0.67499850
H       -1.82612797       1.89872469      -0.48589631
12
Frame=2 idx=002666 GeodesicLength=0.10345101075917222 rxn_smarts="[C:1](/[N:2]=[C:3](\[N:4]([H:10])[H:11])[C:5](=[O:6])[H:12])([H:7])([H:8])[H:9]>>[C:1](=[N:2][C:3]([N+:4]([H:9])([H:10])[H:11])=[C:5]([O-:6])[H:12])([H:7])[H:8]"
C        1.72811489       0.36030761       0.45430251
N        0.64921910       1.05460441       0.01315697
C       -0.37239363       0.31677813      -0.32165923
N       -0.23130748      -1.06797285       0.01793235
C       -1.72506538       0.80037317      -0.43560761
O       -2.68847745       0.05562753      -0.40955489
H        2.15217154      -0.41290788      -0.19294331
H        2.49054428       0.94976848       0.95084798
H        0.73893105      -0.84250324       0.81604355
H       -1.14816188      -1.45800374       0.25144796
H        0.23116690      -1.65371806      -0.66888683
H       -1.82474195       1.89764644      -0.47507948
12
Frame=3 idx=002666 GeodesicLength=0.15517703377829892 rxn_smarts="[C:1](/[N:2]=[C:3](\[N:4]([H:10])[H:11])[C:5](=[O:6])[H:12])([H:7])([H:8])[H:9]>>[C:1](=[N:2][C:3]([N+:4]([H:9])([H:10])[H:11])=[C:5]([O-:6])[H:12])([H:7])[H:8]"
C        1.72880803       0.36203290       0.45607292
N        0.65270926       1.05289966       0.00040237
C       -0.37005959       0.31400516      -0.33194083
N       -0.23885922      -1.06997410       0.01520205
C       -1.72296914       0.79905736      -0.43882906
O       -2.68663416       0.05399087      -0.39947574
H        2.16151210      -0.40689783      -0.19122895
H        2.48555751       0.95680548       0.95518966
H        0.74577906      -0.84902496       0.82212605
H       -1.16352626      -1.44939466       0.23963358
H        0.23075278      -1.66001256      -0.66261655
H       -1.82307036       1.89651268      -0.46453551
12
Frame=4 idx=002666 GeodesicLength=0.20689824555252792 rxn_smarts="[C:1](/[N:2]=[C:3](\[N:4]([H:10])[H:11])[C:5](=[O:6])[H:12])([H:7])([H:8])[H:9]>>[C:1](=[N:2][C:3]([N+:4]([H:9])([H:10])[H:11])=[C:5]([O-:6])[H:12])([H:7])[H:8]"
C        1.72948871       0.36375267       0.45774239
N        0.65607454       1.05108846      -0.01186830
C       -0.36792382       0.31118894      -0.34164028
N       -0.24654215      -1.07201633       0.01258098
C       -1.72099137       0.79786006      -0.44128310
O       -2.68479987       0.05247595      -0.39000614
H        2.17083453      -0.40053555      -0.18989745
H        2.48052744       0.96378382       0.95940878
H        0.75309183      -0.85584082       0.82821407
H       -1.17870253      -1.44096978       0.22787875
H        0.23006518      -1.66613461      -0.65630037
H       -1.82112251       1.89534721      -0.45482934
12
Frame=5 idx=002666 GeodesicLength=0.2586234424288547 rxn_smarts="[C:1](/[N:2]=[C:3](\[N:4]([H:10])[H:11])[C:5](=[O:6])[H:12])([H:7])([H:8])[H:9]>>[C:1](=[N:2][C:3]([N+:4]([H:9])([H:10])[H:11])=[C:5]([O-:6])[H:12])([H:7])[H:8]"
C        1.73014195       0.36548562       0.45928972
N        0.65936425       1.04915266      -0.02391750
C       -0.36594617       0.30829492      -0.35095902
N       -0.25436691      -1.07410101       0.01006244
C       -1.71907583       0.79676576      -0.44327952
O       -2.68297806       0.05109114      -0.38120054
H        2.18017750      -0.39390501      -0.18880886
H        2.47538800       0.97078681       0.96348483
H        0.76080542      -0.86286259       0.83435851
H       -1.19373381      -1.43269333       0.21615382
H        0.22915231      -1.67219263      -0.64982003
H       -1.81892864       1.89417765      -0.44536384
12
Frame=6 idx=002666 GeodesicLength=0.3103457058182855 rxn_smarts="[C:1](/[N:2]=[C:3](\[N:4]([H:10])[H:11])[C:5](=[O:6])[H:12])([H:7])([H:8])[H:9]>>[C:1](=[N:2][C:3]([N+:4]([H:9])([H:10])[H:11])=[C:5]([O-:6])[H:12])([H:7])[H:8]"
C        1.73077963       0.36721284       0.46074175
N        0.66254805       1.04711096      -0.03560709
C       -0.36413163       0.30534514      -0.35983625
N       -0.26232546      -1.07622951       0.00762916
C       -1.71723049       0.79576817      -0.44478141
O       -2.68120634       0.04984133      -0.37288095
H        2.18953370      -0.38696083      -0.18801748
H        2.47016779       0.97775535       0.96746463
H        0.76897131      -0.87014276       0.84052356
H       -1.20861370      -1.42457460       0.20445107
H        0.22802006      -1.67814680      -0.64323585
H       -1.81651293       1.89302071      -0.43645115
12
Frame=7 idx=002666 GeodesicLength=0.3620683201973836 rxn_smarts="[C:1](/[N:2]=[C:3](\[N:4]([H:10])[H:11])[C:5](=[O:6])[H:12])([H:7])([H:8])[H:9]>>[C:1](=[N:2][C:3]([N+:4]([H:9])([H:10])[H:11])=[C:5]([O-:6])[H:12])([H:7])[H:8]"
C        1.73140479       0.36892571       0.46211731
N        0.66561689       1.04497131      -0.04690841
C       -0.36247407       0.30234428      -0.36828472
N       -0.27041534      -1.07840510       0.00525742
C       -1.71545029       0.79485745      -0.44583804
O       -2.67951291       0.04874440      -0.36487357
H        2.19891322      -0.37968531      -0.18752033
H        2.46486193       0.98466944       0.97139170
H        0.77760973      -0.87770214       0.84668995
H       -1.22334973      -1.41661814       0.19273885
H        0.22668857      -1.68399511      -0.63656680
H       -1.81389280       1.89189322      -0.42820336
12
Frame=8 idx=002666 GeodesicLength=0.4137842467234061 rxn_smarts="[C:1](/[N:2]=[C:3](\[N:4]([H:10])[H:11])[C:5](=[O:6])[H:12])([H:7])([H:8])[H:9]>>[C:1](=[N:2][C:3]([N+:4]([H:9])([H:10])[H:11])=[C:5]([O-:6])[H:12])([H:7])[H:8]"
C        1.73201545       0.37061722       0.46342927
N        0.66856393       1.04274077      -0.05780299
C       -0.36096545       0.29929549      -0.37631994
N       -0.27863598      -1.08062920       0.00292772
C       -1.71372278       0.79402260      -0.44650017
O       -2.67790452       0.04781117      -0.35705041
H        2.20831535      -0.37206544      -0.18731241
H        2.45946092       0.99151327       0.97529743
H        0.78673608      -0.88555279       0.85284013
H       -1.23794756      -1.40882047       0.18099701
H        0.22516948      -1.68974087      -0.62982171
H       -1.81108491       1.89080825      -0.42068394
12
Frame=9 idx=002666 GeodesicLength=0.4655048619373452 rxn_smarts="[C:1](/[N:2]=[C:3](\[N:4]([H:10])[H:11])[C:5](=[O:6])[H:12])([H:7])([H:8])[H:9]>>[C:1](=[N:2][C:3]([N+:4]([H:9])([H:10])[H:11])=[C:5]([O-:6])[H:12])([H:7])[H:8]"
C        1.73260576       0.37229644       0.46466109
N        0.67142500       1.04039905      -0.06846745
C       -0.35958985       0.29617647      -0.38405091
N       -0.28699696      -1.08290155       0.00063927
C       -1.71203128       0.79326089      -0.44687700
O       -2.67638484       0.04705053      -0.34946207
H        2.21776986      -0.36415021      -0.18730759
H        2.45392032       0.99833636       0.97916892
H        0.79632379      -0.89363771       0.85900948
H       -1.25243945      -1.40116628       0.16917598
H        0.22349468      -1.69543787      -0.62292055
H       -1.80809703       1.88977386      -0.41356916
12
Frame=10 idx=002666 GeodesicLength=0.5172353009775129 rxn_smarts="[C:1](/[N:2]=[C:3](\[N:4]([H:10])[H:11])[C:5](=[O:6])[H:12])([H:7])([H:8])[H:9]>>[C:1](=[N:2][C:3]([N+:4]([H:9])([H:10])[H:11])=[C:5]([O-:6])[H:12])([H:7])[H:8]"
C        1.73316484       0.37397554       0.46579336
N        0.67423381       1.03792396      -0.07906478
C       -0.35833195       0.29296518      -0.39157788
N       -0.29550873      -1.08522155      -0.00161198
C       -1.71035127       0.79257357      -0.44706631
O       -2.67495144       0.04646790      -0.34215447
H        2.22729825      -0.35598071      -0.18742781
H        2.44818715       1.00518823       0.98299515
H        0.80634852      -0.90190332       0.86522788
H       -1.26685037      -1.39364065       0.15722855
H        0.22168265      -1.70113787      -0.61578566
H       -1.80492145       1.88878972      -0.40655604
12
Frame=11 idx=002666 GeodesicLength=0.5689782736532398 rxn_smarts="[C:1](/[N:2]=[C:3](\[N:4]([H:10])[H:11])[C:5](=[O:6])[H:12])([H:7])([H:8])[H:9]>>[C:1](=[N:2][C:3]([N+:4]([H:9])([H:10])[H:11])=[C:5]([O-:6])[H:12])([H:7])[H:8]"
C        1.73367316       0.37565363       0.46684682
N        0.67699558       1.03530166      -0.08964354
C       -0.35719122       0.28965227      -0.39893862
N       -0.30416997      -1.08760289      -0.00387519
C       -1.70868383       0.79195496      -0.44705840
O       -2.67359983       0.04611991      -0.33483768
H        2.23691946      -0.34754403      -0.18762745
H        2.44219374       1.01207656       0.98684350
H        0.81681295      -0.91035910       0.87147581
H       -1.28118558      -1.38627229       0.14504955
H        0.21976737      -1.70684576      -0.60843908
H       -1.80153186       1.88786508      -0.39979570
12
Frame=12 idx=002666 GeodesicLength=0.6207300053990564 rxn_smarts="[C:1](/[N:2]=[C:3](\[N:4]([H:10])[H:11])[C:5](=[O:6])[H:12])([H:7])([H:8])[H:9]>>[C:1](=[N:2][C:3]([N+:4]([H:9])([H:10])[H:11])=[C:5]([O-:6])[H:12])([H:7])[H:8]"
C        1.73415088       0.37732103       0.46781338
N        0.67970020       1.03254371      -0.10013404
C       -0.35616487       0.28624972      -0.40610075
N       -0.31299031      -1.09003451      -0.00612241
C       -1.70702457       0.79140511      -0.44687264
O       -2.67234627       0.04596809      -0.32765238
H        2.24661956      -0.33882885      -0.18794722
H        2.43598948       1.01897601       0.99067546
H        0.82775619      -0.91901122       0.87775791
H       -1.29545750      -1.37903440       0.13267357
H        0.21772792      -1.71255262      -0.60084801
H       -1.79796072       1.88699794      -0.39324288
12
Frame=13 idx=002666 GeodesicLength=0.6724984989833457 rxn_smarts="[C:1](/[N:2]=[C:3](\[N:4]([H:10])[H:11])[C:5](=[O:6])[H:12])([H:7])([H:8])[H:9]>>[C:1](=[N:2][C:3]([N+:4]([H:9])([H:10])[H:11])=[C:5]([O-:6])[H:12])([H:7])[H:8]"
C        1.73458462       0.37898117       0.46869534
N        0.68236112       1.02963329      -0.11061467
C       -0.35524844       0.28274379      -0.41311707
N       -0.32197790      -1.09252393      -0.00837283
C       -1.70536599       0.79092303      -0.44653778
O       -2.67118295       0.04603889      -0.32049324
H        2.25641401      -0.32984063      -0.18834110
H        2.42952543       1.02591113       0.99450691
H        0.83917633      -0.92784323       0.88408224
H       -1.30968290      -1.37193717       0.12001844
H        0.21558381      -1.71827883      -0.59298107
H       -1.79418712       1.88619250      -0.38684518
12
Frame=14 idx=002666 GeodesicLength=0.7242784065764071 rxn_smarts="[C:1](/[N:2]=[C:3](\[N:4]([H:10])[H:11])[C:5](=[O:6])[H:12])([H:7])([H:8])[H:9]>>[C:1](=[N:2][C:3]([N+:4]([H:9])([H:10])[H:11])=[C:5]([O-:6])[H:12])([H:7])[H:8]"
C        1.73499077       0.38062370       0.46949017
N        0.68496518       1.02658394      -0.12101267
C       -0.35444132       0.27914665      -0.41995526
N       -0.33114062      -1.09506455      -0.01060872
C       -1.70371268       0.79050590      -0.44605531
O       -2.67011604       0.04630818      -0.31343586
H        2.26628848      -0.32056128      -0.18884953
H        2.42284362       1.03284865       0.99831941
H        0.85111470      -0.93686420       0.89044716
H       -1.32386949      -1.36496194       0.10710007
H        0.21331806      -1.72401379      -0.58481697
H       -1.79024066       1.88544872      -0.38062248
12
Frame=15 idx=002666 GeodesicLength=0.7760710968301436 rxn_smarts="[C:1](/[N:2]=[C:3](\[N:4]([H:10])[H:11])[C:5](=[O:6])[H:12])([H:7])([H:8])[H:9]>>[C:1](=[N:2][C:3]([N+:4]([H:9])([H:10])[H:11])=[C:5]([O-:6])[H:12])([H:7])[H:8]"
C        1.73535150       0.38224848       0.47020530
N        0.68751732       1.02338005      -0.13137682
C       -0.35374296       0.27544861      -0.42664879
N       -0.34048460      -1.09766166      -0.01286222
C       -1.70205548       0.79014925      -0.44543284
O       -2.66913150       0.04681373      -0.30627975
H        2.27625537      -0.31098036      -0.18943729
H        2.41588210       1.03979607       1.00215571
H        0.86357939      -0.94607597       0.89684308
H       -1.33802384      -1.35812430       0.09382242
H        0.21094866      -1.72976281      -0.57634630
H       -1.78609598       1.88476891      -0.37464250
12
Frame=16 idx=002666 GeodesicLength=0.8278762574597992 rxn_smarts="[C:1](/[N:2]=[C:3](\[N:4]([H:10])[H:11])[C:5](=[O:6])[H:12])([H:7])([H:8])[H:9]>>[C:1](=[N:2][C:3]([N+:4]([H:9])([H:10])[H:11])=[C:5]([O-:6])[H:12])([H:7])[H:8]"
C        1.73569111       0.38384826       0.47082334
N        0.69001455       1.02003286      -0.14166814
C       -0.35315013       0.27165854      -0.43317755
N       -0.35002586      -1.10030505      -0.01509238
C       -1.70039875       0.78985623      -0.44469165
O       -2.66823946       0.04750755      -0.29926000
H        2.28630154      -0.30109754      -0.19014277
H        2.40869742       1.04673449       1.00596233
H        0.87661222      -0.95546594       0.90328563
H       -1.35216379      -1.35138983       0.08022472
H        0.20844986      -1.73552841      -0.56750320
H       -1.78178872       1.88414884      -0.36876033
