11
Frame=0 idx=010842 GeodesicLength=0.0 rxn_smarts="[C:1](#[C:2][C@@:3]1([H:9])[N:4]([H:10])[C@:5]1([C:6]#[N:7])[H:11])[H:8]>>[C:1](=[C:2]=[C:3](/[C:5](=[N:4]\[H:10])[H:11])[H:9])([N+:7]#[C-:6])[H:8]"
C        1.41399982       0.99567918       0.24092287
C        1.35398146      -0.24511965      -0.15042462
C        0.24289123      -0.84174198      -0.64105495
N       -1.18733249      -1.07987666       0.94659687
C       -1.12227561      -0.37455769      -0.20070354
C       -0.90840841       1.30833538      -0.19092765
N        0.17727068       1.80140123      -0.12434932
H        2.09964001       1.54809975       0.86281433
H        0.23194760      -1.64804442      -1.36510648
H       -0.37499873      -0.86984654       1.52324200
H       -1.92671558      -0.59432859      -0.90100948
11
Frame=1 idx=010842 GeodesicLength=0.13066389344678614 rxn_smarts="[C:1](#[C:2][C@@:3]1([H:9])[N:4]([H:10])[C@:5]1([C:6]#[N:7])[H:11])[H:8]>>[C:1](=[C:2]=[C:3](/[C:5](=[N:4]\[H:10])[H:11])[H:9])([N+:7]#[C-:6])[H:8]"
C        1.42812353       0.99656897       0.23783787
C        1.34662949      -0.24339677      -0.14293368
C        0.23822091      -0.85169215      -0.62857100
N       -1.18250506      -1.09925102       0.93722474
C       -1.13077216      -0.38329828      -0.20458414
C       -0.91577500       1.33469599      -0.18939578
N        0.16846448       1.82533232      -0.11475073
H        2.12918802       1.53900916       0.85115610
H        0.24045064      -1.64038912      -1.37184295
H       -0.39260924      -0.85816961       1.53239119
H       -1.92941562      -0.61940951      -0.90653161
11
Frame=2 idx=010842 GeodesicLength=0.2612038153234623 rxn_smarts="[C:1](#[C:2][C@@:3]1([H:9])[N:4]([H:10])[C@:5]1([C:6]#[N:7])[H:11])[H:8]>>[C:1](=[C:2]=[C:3](/[C:5](=[N:4]\[H:10])[H:11])[H:9])([N+:7]#[C-:6])[H:8]"
C        1.44241356       0.99724080       0.23464585
C        1.33904288      -0.24127505      -0.13601708
C        0.23352706      -0.86145643      -0.61664702
N       -1.17711944      -1.11767669       0.92836207
C       -1.13926038      -0.39245185      -0.20862793
C       -0.92314114       1.36202142      -0.18815322
N        0.15960746       1.85007503      -0.10490615
H        2.15838489       1.52899657       0.84003813
H        0.24901452      -1.63291969      -1.37774836
H       -0.41044225      -0.84705349       1.54075777
H       -1.93202716      -0.64550063      -0.91170406
11
Frame=3 idx=010842 GeodesicLength=0.39165114607724594 rxn_smarts="[C:1](#[C:2][C@@:3]1([H:9])[N:4]([H:10])[C@:5]1([C:6]#[N:7])[H:11])[H:8]>>[C:1](=[C:2]=[C:3](/[C:5](=[N:4]\[H:10])[H:11])[H:9])([N+:7]#[C-:6])[H:8]"
C        1.45688953       0.99770368       0.23134395
C        1.33120826      -0.23872450      -0.12969090
C        0.22881759      -0.87103652      -0.60527257
N       -1.17123227      -1.13520947       0.91998556
C       -1.14775686      -0.40205146      -0.21285979
C       -0.93051386       1.39036878      -0.18712945
N        0.15068866       1.87567759      -0.09482419
H        2.18725067       1.51802706       0.82947327
H        0.25762212      -1.62568539      -1.38285458
H       -0.42844451      -0.83642777       1.54837261
H       -1.93452933      -0.67264201      -0.91654390
11
Frame=4 idx=010842 GeodesicLength=0.5220422510048162 rxn_smarts="[C:1](#[C:2][C@@:3]1([H:9])[N:4]([H:10])[C@:5]1([C:6]#[N:7])[H:11])[H:8]>>[C:1](=[C:2]=[C:3](/[C:5](=[N:4]\[H:10])[H:11])[H:9])([N+:7]#[C-:6])[H:8]"
C        1.47156369       0.99795508       0.22796203
C        1.32310507      -0.23572646      -0.12394670
C        0.22409745      -0.88043789      -0.59443376
N       -1.16490421      -1.15191606       0.91206282
C       -1.15628403      -0.41214055      -0.21730743
C       -0.93790111       1.41979843      -0.18625071
N        0.14169689       1.90218735      -0.08448954
H        2.21586000       1.50610421       0.81940788
H        0.26626738      -1.61871029      -1.38719743
H       -0.44660775      -0.82622690       1.55526301
H       -1.93689338      -0.70088692      -0.92107018
11
Frame=5 idx=010842 GeodesicLength=0.6523772929523777 rxn_smarts="[C:1](#[C:2][C@@:3]1([H:9])[N:4]([H:10])[C@:5]1([C:6]#[N:7])[H:11])[H:8]>>[C:1](=[C:2]=[C:3](/[C:5](=[N:4]\[H:10])[H:11])[H:9])([N+:7]#[C-:6])[H:8]"
C        1.48646207       0.99800279       0.22447569
C        1.31471946      -0.23223509      -0.11881701
C        0.21937604      -0.88966017      -0.58411739
N       -1.15815655      -1.16782574       0.90458886
C       -1.16485201      -0.42275290      -0.22199100
C       -0.94530536       1.45037384      -0.18545636
N        0.13262989       1.92966558      -0.07392078
H        2.24418061       1.49315927       0.80989278
H        0.27493996      -1.61205628      -1.39081459
H       -0.46487981      -0.81639194       1.56145024
H       -1.93911430      -0.73027935      -0.92529045
11
Frame=6 idx=010842 GeodesicLength=0.7827023854231111 rxn_smarts="[C:1](#[C:2][C@@:3]1([H:9])[N:4]([H:10])[C@:5]1([C:6]#[N:7])[H:11])[H:8]>>[C:1](=[C:2]=[C:3](/[C:5](=[N:4]\[H:10])[H:11])[H:9])([N+:7]#[C-:6])[H:8]"
C        1.50159097       0.99784025       0.22091832
C        1.30601514      -0.22822126      -0.11430176
C        0.21465371      -0.89871159      -0.57430954
N       -1.15103667      -1.18298888       0.89753549
C       -1.17348799      -0.43395140      -0.22694196
C       -0.95273470       1.48217137      -0.18468854
N        0.12347364       1.95817260      -0.06306960
H        2.27231491       1.47917315       0.80086179
H        0.28364902      -1.60572778      -1.39374709
H       -0.48328841      -0.80684064       1.56694943
H       -1.94114963      -0.76091583      -0.92920654
11
Frame=7 idx=010842 GeodesicLength=0.9130466610972767 rxn_smarts="[C:1](#[C:2][C@@:3]1([H:9])[N:4]([H:10])[C@:5]1([C:6]#[N:7])[H:11])[H:8]>>[C:1](=[C:2]=[C:3](/[C:5](=[N:4]\[H:10])[H:11])[H:9])([N+:7]#[C-:6])[H:8]"
C        1.51698714       0.99746061       0.21725227
C        1.29696521      -0.22363124      -0.11046000
C        0.20992989      -0.90758962      -0.56501180
N       -1.14353687      -1.19742533       0.89090664
C       -1.18220549      -0.44578585      -0.23217870
C       -0.96019070       1.51527592      -0.18389931
N        0.11423329       1.98778749      -0.05194849
H        2.30020812       1.46404501       0.79240500
H        0.29238825      -1.59976680      -1.39603758
H       -0.50179579      -0.79748369       1.57176967
H       -1.94298306      -0.79288651      -0.93279769
11
Frame=8 idx=010842 GeodesicLength=1.0434170301759067 rxn_smarts="[C:1](#[C:2][C@@:3]1([H:9])[N:4]([H:10])[C@:5]1([C:6]#[N:7])[H:11])[H:8]>>[C:1](=[C:2]=[C:3](/[C:5](=[N:4]\[H:10])[H:11])[H:9])([N+:7]#[C-:6])[H:8]"
C        1.53266678       0.99685566       0.21348442
C        1.28753328      -0.21841931      -0.10731071
C        0.20521319      -0.91630722      -0.55620070
N       -1.13568641      -1.21115638       0.88469029
C       -1.19102511      -0.45832524      -0.23773591
C       -0.96767418       1.54976809      -0.18306742
N        0.10488565       2.01857339      -0.04044813
H        2.32792651       1.44773107       0.78446387
H        0.30116617      -1.59419536      -1.39773395
H       -0.52043772      -0.78823349       1.57591691
H       -1.94456816      -0.82629122      -0.93605867
11
Frame=9 idx=010842 GeodesicLength=1.1741143563013823 rxn_smarts="[C:1](#[C:2][C@@:3]1([H:9])[N:4]([H:10])[C@:5]1([C:6]#[N:7])[H:11])[H:8]>>[C:1](=[C:2]=[C:3](/[C:5](=[N:4]\[H:10])[H:11])[H:9])([N+:7]#[C-:6])[H:8]"
C        1.54869416       0.99598338       0.20941381
C        1.27761677      -0.21247614      -0.10514179
C        0.20046264      -0.92487290      -0.54797335
N       -1.12743090      -1.22411537       0.87887222
C       -1.19996679      -0.47176874      -0.24360157
C       -0.97509674       1.58591966      -0.18213084
N        0.09556085       2.05069020      -0.02858395
H        2.35510239       1.43000578       0.77746753
H        0.30999868      -1.58910422      -1.39885305
H       -0.53904881      -0.77888969       1.57938192
H       -1.94589226      -0.86137194      -0.93885094
11
Frame=10 idx=010842 GeodesicLength=1.304846967215429 rxn_smarts="[C:1](#[C:2][C@@:3]1([H:9])[N:4]([H:10])[C@:5]1([C:6]#[N:7])[H:11])[H:8]>>[C:1](=[C:2]=[C:3](/[C:5](=[N:4]\[H:10])[H:11])[H:9])([N+:7]#[C-:6])[H:8]"
C        1.56504601       0.99486143       0.20519062
C        1.26720991      -0.20577993      -0.10377108
C        0.19573025      -0.93329560      -0.54020588
N       -1.11885710      -1.23638889       0.87344568
C       -1.20904473      -0.48609005      -0.24985093
C       -0.98252670       1.62367178      -0.18114702
N        0.08609178       2.08412977      -0.01603373
H        2.38217377       1.41092794       0.77092842
H        0.31890888      -1.58446413      -1.39943526
H       -0.55786153      -0.76942048       1.58215741
H       -1.94687055      -0.89815182      -0.94127823
11
Frame=11 idx=010842 GeodesicLength=1.4355950573549483 rxn_smarts="[C:1](#[C:2][C@@:3]1([H:9])[N:4]([H:10])[C@:5]1([C:6]#[N:7])[H:11])[H:8]>>[C:1](=[C:2]=[C:3](/[C:5](=[N:4]\[H:10])[H:11])[H:9])([N+:7]#[C-:6])[H:8]"
C        1.58175045       0.99347365       0.20074958
C        1.25624935      -0.19824800      -0.10327618
C        0.19102198      -0.94158387      -0.53288749
N       -1.10996274      -1.24795851       0.86840929
C       -1.21826893      -0.50137138      -0.25651936
C       -0.98995137       1.66313629      -0.18014712
N        0.07645236       2.11897383      -0.00258109
H        2.40912661       1.39037667       0.76483824
H        0.32792523      -1.58033017      -1.39948910
H       -0.57689333      -0.75970023       1.58422045
H       -1.94744961      -0.93676828      -0.94331722
11
Frame=12 idx=010842 GeodesicLength=1.566355856826945 rxn_smarts="[C:1](#[C:2][C@@:3]1([H:9])[N:4]([H:10])[C@:5]1([C:6]#[N:7])[H:11])[H:8]>>[C:1](=[C:2]=[C:3](/[C:5](=[N:4]\[H:10])[H:11])[H:9])([N+:7]#[C-:6])[H:8]"
C        1.59881872       0.99180615       0.19605412
C        1.24466463      -0.18980776      -0.10370275
C        0.18634988      -0.94975198      -0.52599280
N       -1.10078190      -1.25880909       0.86374708
C       -1.22765352      -0.51772503      -0.26365587
C       -0.99732514       1.70445664      -0.17920599
N        0.06658194       2.15527528       0.01214160
H        2.43604210       1.36827951       0.75904041
H        0.33709268      -1.57674805      -1.39900337
H       -0.59624406      -0.74959184       1.58552964
H       -1.94754534      -0.97738382      -0.94495208
11
Frame=13 idx=010842 GeodesicLength=1.697078177597693 rxn_smarts="[C:1](#[C:2][C@@:3]1([H:9])[N:4]([H:10])[C@:5]1([C:6]#[N:7])[H:11])[H:8]>>[C:1](=[C:2]=[C:3](/[C:5](=[N:4]\[H:10])[H:11])[H:9])([N+:7]#[C-:6])[H:8]"
C        1.61628293       0.98983955       0.19097385
C        1.23237240      -0.18033274      -0.10517867
C        0.18172857      -0.95780210      -0.51950584
N       -1.09129429      -1.26888319       0.85947213
C       -1.23719313      -0.53525225      -0.27129747
C       -1.00462262       1.74776716      -0.17838482
N        0.05644546       2.19310962       0.02841474
H        2.46283289       1.34444606       0.75357522
H        0.34645219      -1.57380035      -1.39797555
H       -0.61591814      -0.73894239       1.58604525
H       -1.94708625      -1.02014937      -0.94613885
11
Frame=14 idx=010842 GeodesicLength=1.8277631130597214 rxn_smarts="[C:1](#[C:2][C@@:3]1([H:9])[N:4]([H:10])[C@:5]1([C:6]#[N:7])[H:11])[H:8]>>[C:1](=[C:2]=[C:3](/[C:5](=[N:4]\[H:10])[H:11])[H:9])([N+:7]#[C-:6])[H:8]"
C        1.63413662       0.98754545       0.18544530
C        1.21927085      -0.16972407      -0.10777215
C        0.17717735      -0.96575066      -0.51339056
N       -1.08155485      -1.27812710       0.85556762
C       -1.24689522      -0.55409187      -0.27951370
C       -1.01175021       1.79327467      -0.17778769
N        0.04595081       2.23249974       0.04675889
H        2.48958681       1.31878815       0.74820281
H        0.35608094      -1.57155091      -1.39635275
H       -0.63607234      -0.72758569       1.58568900
H       -1.94593076      -1.06527770      -0.94684678
11
Frame=15 idx=010842 GeodesicLength=1.958367754585179 rxn_smarts="[C:1](#[C:2][C@@:3]1([H:9])[N:4]([H:10])[C@:5]1([C:6]#[N:7])[H:11])[H:8]>>[C:1](=[C:2]=[C:3](/[C:5](=[N:4]\[H:10])[H:11])[H:9])([N+:7]#[C-:6])[H:8]"
C        1.65239297       0.98488052       0.17932774
C        1.20525074      -0.15784140      -0.11162923
C        0.17271971      -0.97360073      -0.50762231
N       -1.07155619      -1.28646766       0.85204277
C       -1.25674384      -0.57438149      -0.28835055
C       -1.01862629       1.84118107      -0.17748169
N        0.03504312       2.27349002       0.06755158
H        2.51621215       1.29112571       0.74289350
H        0.36604093      -1.57008294      -1.39410938
H       -0.65677614      -0.71534286       1.58438343
H       -1.94395717      -1.11296024      -0.94700586
11
Frame=16 idx=010842 GeodesicLength=2.088862139504489 rxn_smarts="[C:1](#[C:2][C@@:3]1([H:9])[N:4]([H:10])[C@:5]1([C:6]#[N:7])[H:11])[H:8]>>[C:1](=[C:2]=[C:3](/[C:5](=[N:4]\[H:10])[H:11])[H:9])([N+:7]#[C-:6])[H:8]"
C        1.67103625       0.98179365       0.17248983
C        1.19018295      -0.14452667      -0.11692652
C        0.16838442      -0.98134675      -0.50217975
N       -1.06130777      -1.29380168       0.84889884
C       -1.26672105      -0.59628260      -0.29786501
C       -1.02512329       1.89174648      -0.17753988
N        0.02364212       2.31610953       0.09124729
H        2.54263202       1.26126186       0.73756032
H        0.37641330      -1.56948599      -1.39118489
H       -0.67814319      -0.70202691       1.58201623
H       -1.94099576      -1.16344092      -0.94651647
