10
Frame=0 idx=000137 GeodesicLength=0.0 rxn_smarts="[O:1]=[C:2]1[C:3]([H:7])([H:8])[C@@:4]2([H:9])[O:5][C@@:6]12[H:10]>>[O:1]=[C:2]([C@@:6]1([H:10])[C:3]([H:7])=[C:4]([H:9])[O:5]1)[H:8]"
O       -0.39663861       2.25000764      -0.37553973
C       -0.31216137       1.11474549       0.09934904
C       -0.98978738      -0.33577177      -0.26921914
C        0.19029123      -1.06883715      -0.40800367
O        1.18988000      -0.31991632      -1.14017889
C        0.94186691       0.20762912       0.09143213
H       -1.92135853      -0.71819532       0.13728235
H       -0.82297357       0.89682833       1.11936466
H        0.45394175      -2.08310828      -0.14468413
H        1.66693957       0.05661827       0.89019740
10
Frame=1 idx=000137 GeodesicLength=0.07877184622417412 rxn_smarts="[O:1]=[C:2]1[C:3]([H:7])([H:8])[C@@:4]2([H:9])[O:5][C@@:6]12[H:10]>>[O:1]=[C:2]([C@@:6]1([H:10])[C:3]([H:7])=[C:4]([H:9])[O:5]1)[H:8]"
O       -0.38448393       2.25790335      -0.38136512
C       -0.30176690       1.12904582       0.10124136
C       -0.98118696      -0.33871621      -0.24706215
C        0.19223706      -1.07833978      -0.40855734
O        1.18060483      -0.32235181      -1.14080808
C        0.93723410       0.20731297       0.09525242
H       -1.92221587      -0.72166489       0.13397724
H       -0.84547762       0.89405102       1.11815044
H        0.45506396      -2.09648512      -0.15961839
H        1.66999134       0.06924465       0.88878962
10
Frame=2 idx=000137 GeodesicLength=0.15755295263133462 rxn_smarts="[O:1]=[C:2]1[C:3]([H:7])([H:8])[C@@:4]2([H:9])[O:5][C@@:6]12[H:10]>>[O:1]=[C:2]([C@@:6]1([H:10])[C:3]([H:7])=[C:4]([H:9])[O:5]1)[H:8]"
O       -0.37252422       2.26535205      -0.38723548
C       -0.29132866       1.14316943       0.10362255
C       -0.97233351      -0.34202045      -0.22397865
C        0.19415918      -1.08786208      -0.40866480
O        1.17091869      -0.32480755      -1.14135898
C        0.93267673       0.20709592       0.09920862
H       -1.92325127      -0.72480963       0.12923207
H       -0.86786245       0.89152312       1.11696585
H        0.45599763      -2.10983699      -0.17464885
H        1.67354790       0.08219618       0.88685767
10
Frame=3 idx=000137 GeodesicLength=0.23630410856079412 rxn_smarts="[O:1]=[C:2]1[C:3]([H:7])([H:8])[C@@:4]2([H:9])[O:5][C@@:6]12[H:10]>>[O:1]=[C:2]([C@@:6]1([H:10])[C:3]([H:7])=[C:4]([H:9])[O:5]1)[H:8]"
O       -0.36079587       2.27230252      -0.39310642
C       -0.28084050       1.15709232       0.10648190
C       -0.96319930      -0.34573519      -0.19986247
C        0.19604313      -1.09740796      -0.40827167
O        1.16073228      -0.32731055      -1.14181716
C        0.92819020       0.20699791       0.10329100
H       -1.92435138      -0.72752542       0.12284054
H       -0.89009334       0.88919097       1.11584031
H        0.45670558      -2.12312923      -0.18972525
H        1.67760921       0.09552465       0.88432922
10
Frame=4 idx=000137 GeodesicLength=0.31505600989057253 rxn_smarts="[O:1]=[C:2]1[C:3]([H:7])([H:8])[C@@:4]2([H:9])[O:5][C@@:6]12[H:10]>>[O:1]=[C:2]([C@@:6]1([H:10])[C:3]([H:7])=[C:4]([H:9])[O:5]1)[H:8]"
O       -0.34939283       2.27875748      -0.39896515
C       -0.27032968       1.17080114       0.10980513
C       -0.95376999      -0.34992271      -0.17455993
C        0.19791648      -1.10700976      -0.40728666
O        1.15000739      -0.32988709      -1.14219883
C        0.92381189       0.20702016       0.10748794
H       -1.92550561      -0.72960384       0.11456474
H       -0.91219969       0.88698965       1.11484806
H        0.45719867      -2.13640623      -0.20482036
H        1.68226339       0.10926120       0.88112505
10
Frame=5 idx=000137 GeodesicLength=0.39382231093383807 rxn_smarts="[O:1]=[C:2]1[C:3]([H:7])([H:8])[C@@:4]2([H:9])[O:5][C@@:6]12[H:10]>>[O:1]=[C:2]([C@@:6]1([H:10])[C:3]([H:7])=[C:4]([H:9])[O:5]1)[H:8]"
O       -0.33838973       2.28468289      -0.40477847
C       -0.25981463       1.18427408       0.11359291
C       -0.94401804      -0.35466022      -0.14787886
C        0.19977909      -1.11670001      -0.40561387
O        1.13864421      -0.33257434      -1.14250395
C        0.91955042       0.20717678       0.11178960
H       -1.92658997      -0.73085053       0.10407978
H       -0.93417379       0.88486616       1.11406564
H        0.45745266      -2.14968544      -0.21988977
H        1.68755979       0.12347062       0.87713698
10
Frame=6 idx=000137 GeodesicLength=0.47263037328387664 rxn_smarts="[O:1]=[C:2]1[C:3]([H:7])([H:8])[C@@:4]2([H:9])[O:5][C@@:6]12[H:10]>>[O:1]=[C:2]([C@@:6]1([H:10])[C:3]([H:7])=[C:4]([H:9])[O:5]1)[H:8]"
O       -0.32790699       2.29009447      -0.41053714
C       -0.24933751       1.19750368       0.11783931
C       -0.93394617      -0.36003163      -0.11958503
C        0.20163519      -1.12652692      -0.40314005
O        1.12655685      -0.33539184      -1.14273637
C        0.91543861       0.20747044       0.11618452
H       -1.92746079      -0.73101749       0.09101712
H       -0.95603412       0.88274882       1.11358867
H        0.45745317      -2.16302905      -0.23487810
H        1.69360178       0.13817953       0.87224706
10
Frame=7 idx=000137 GeodesicLength=0.5514178252311719 rxn_smarts="[O:1]=[C:2]1[C:3]([H:7])([H:8])[C@@:4]2([H:9])[O:5][C@@:6]12[H:10]>>[O:1]=[C:2]([C@@:6]1([H:10])[C:3]([H:7])=[C:4]([H:9])[O:5]1)[H:8]"
O       -0.31803677       2.29475998      -0.41615469
C       -0.23892960       1.21036639       0.12254157
C       -0.92342266      -0.36616091      -0.08948597
C        0.20349350      -1.13650496      -0.39974590
O        1.11354176      -0.33845371      -1.14286257
C        0.91140740       0.20791590       0.12067128
H       -1.92774217      -0.72967580       0.07501205
H       -0.97772826       0.88054831       1.11348894
H        0.45712311      -2.17635824      -0.24978972
H        1.70029369       0.15356304       0.86632501
10
Frame=8 idx=000137 GeodesicLength=0.6301490230724641 rxn_smarts="[O:1]=[C:2]1[C:3]([H:7])([H:8])[C@@:4]2([H:9])[O:5][C@@:6]12[H:10]>>[O:1]=[C:2]([C@@:6]1([H:10])[C:3]([H:7])=[C:4]([H:9])[O:5]1)[H:8]"
O       -0.30881999       2.29887162      -0.42168380
C       -0.22867437       1.22290439       0.12754914
C       -0.91254369      -0.37301368      -0.05771119
C        0.20532121      -1.14661680      -0.39549419
O        1.09966771      -0.34166072      -1.14284307
C        0.90744351       0.20847621       0.12525760
H       -1.92686464      -0.72674125       0.05643962
H       -0.99940339       0.87810620       1.11364614
H        0.45635825      -2.18969955      -0.26461089
H        1.70751540       0.16937358       0.85945064
10
Frame=9 idx=000137 GeodesicLength=0.708932518557077 rxn_smarts="[O:1]=[C:2]1[C:3]([H:7])([H:8])[C@@:4]2([H:9])[O:5][C@@:6]12[H:10]>>[O:1]=[C:2]([C@@:6]1([H:10])[C:3]([H:7])=[C:4]([H:9])[O:5]1)[H:8]"
O       -0.30017026       2.30248230      -0.42710154
C       -0.21862637       1.23513759       0.13274911
C       -0.90137330      -0.38058618      -0.02459098
C        0.20710441      -1.15688496      -0.39047787
O        1.08504187      -0.34506908      -1.14259807
C        0.90346945       0.20914763       0.13000840
H       -1.92414127      -0.72211508       0.03600172
H       -1.02131289       0.87534777       1.11383670
H        0.45496837      -2.20308090      -0.27958402
H        1.71503999       0.18562092       0.85175656
10
Frame=10 idx=000137 GeodesicLength=0.7877678244422917 rxn_smarts="[O:1]=[C:2]1[C:3]([H:7])([H:8])[C@@:4]2([H:9])[O:5][C@@:6]12[H:10]>>[O:1]=[C:2]([C@@:6]1([H:10])[C:3]([H:7])=[C:4]([H:9])[O:5]1)[H:8]"
O       -0.29188492       2.30578336      -0.43246596
C       -0.20879178       1.24714765       0.13793835
C       -0.88999772      -0.38868381       0.00918468
C        0.20883693      -1.16722376      -0.38492679
O        1.06994297      -0.34858999      -1.14201983
C        0.89941868       0.20989988       0.13499822
H       -1.91906356      -0.71610135       0.01506267
H       -1.04372436       0.87211779       1.11362931
H        0.45273253      -2.21643154      -0.29495841
H        1.72253124       0.20208177       0.84355777
10
Frame=11 idx=000137 GeodesicLength=0.8665852923790981 rxn_smarts="[O:1]=[C:2]1[C:3]([H:7])([H:8])[C@@:4]2([H:9])[O:5][C@@:6]12[H:10]>>[O:1]=[C:2]([C@@:6]1([H:10])[C:3]([H:7])=[C:4]([H:9])[O:5]1)[H:8]"
O       -0.28363596       2.30881273      -0.43780118
C       -0.19909915       1.25897187       0.14294390
C       -0.87844137      -0.39704493       0.04272513
C        0.21052782      -1.17748301      -0.37911042
O        1.05465423      -0.35216559      -1.14097696
C        0.89517575       0.21072486       0.14032728
H       -1.91129055      -0.70918494      -0.00476177
H       -1.06683523       0.86826276       1.11247072
H        0.44938834      -2.22952516      -0.31104253
H        1.72955613       0.21863140       0.83522584
10
Frame=12 idx=000137 GeodesicLength=0.94546674300887 rxn_smarts="[O:1]=[C:2]1[C:3]([H:7])([H:8])[C@@:4]2([H:9])[O:5][C@@:6]12[H:10]>>[O:1]=[C:2]([C@@:6]1([H:10])[C:3]([H:7])=[C:4]([H:9])[O:5]1)[H:8]"
O       -0.27513783       2.31194208      -0.44317005
C       -0.18945616       1.27082660       0.14763429
C       -0.86685406      -0.40539199       0.07529556
C        0.21220367      -1.18759622      -0.37330257
O        1.03959279      -0.35566521      -1.13943405
C        0.89077928       0.21163378       0.14603386
H       -1.90104898      -0.70214814      -0.02208452
H       -1.09083961       0.86371730       1.10992304
H        0.44481460      -2.24232931      -0.32799723
H        1.73594631       0.23501111       0.82710168
10
Frame=13 idx=000137 GeodesicLength=1.024380422254635 rxn_smarts="[O:1]=[C:2]1[C:3]([H:7])([H:8])[C@@:4]2([H:9])[O:5][C@@:6]12[H:10]>>[O:1]=[C:2]([C@@:6]1([H:10])[C:3]([H:7])=[C:4]([H:9])[O:5]1)[H:8]"
O       -0.26627326       2.31515967      -0.44859654
C       -0.17975969       1.28275744       0.15201928
C       -0.85521948      -0.41359455       0.10671031
C        0.21391042      -1.19750148      -0.36751748
O        1.02484051      -0.35906782      -1.13736830
C        0.88625159       0.21266378       0.15214370
H       -1.88869015      -0.69538247      -0.03658593
H       -1.11567548       0.85843266       1.10581708
H        0.43891950      -2.25470001      -0.34589275
H        1.74169604       0.25123279       0.81927063
10
Frame=14 idx=000137 GeodesicLength=1.1033388401178024 rxn_smarts="[O:1]=[C:2]1[C:3]([H:7])([H:8])[C@@:4]2([H:9])[O:5][C@@:6]12[H:10]>>[O:1]=[C:2]([C@@:6]1([H:10])[C:3]([H:7])=[C:4]([H:9])[O:5]1)[H:8]"
O       -0.25702607       2.31852422      -0.45409302
C       -0.16994152       1.29482828       0.15612285
C       -0.84352073      -0.42159660       0.13696227
C        0.21571144      -1.20719536      -0.36173582
O        1.01045893      -0.36235661      -1.13480551
C        0.88164911       0.21385437       0.15863369
H       -1.87466667      -0.68912234      -0.04828524
H       -1.14122630       0.85235214       1.10012936
H        0.43169435      -2.26657421      -0.36467035
H        1.74686746       0.26728610       0.81174177
10
Frame=15 idx=000137 GeodesicLength=1.1823219662950784 rxn_smarts="[O:1]=[C:2]1[C:3]([H:7])([H:8])[C@@:4]2([H:9])[O:5][C@@:6]12[H:10]>>[O:1]=[C:2]([C@@:6]1([H:10])[C:3]([H:7])=[C:4]([H:9])[O:5]1)[H:8]"
O       -0.24743259       2.32203061      -0.45966669
C       -0.15994937       1.30706829       0.15998049
C       -0.83174008      -0.42937120       0.16615062
C        0.21764226      -1.21667439      -0.35590832
O        0.99642452      -0.36552882      -1.13177624
C        0.87701116       0.21524251       0.16547173
H       -1.85932103      -0.68349515      -0.05744306
H       -1.16730788       0.84541189       1.09291947
H        0.42313991      -2.27785983      -0.38421025
H        1.75153310       0.28317609       0.80448225
10
Frame=16 idx=000137 GeodesicLength=1.2613181433973104 rxn_smarts="[O:1]=[C:2]1[C:3]([H:7])([H:8])[C@@:4]2([H:9])[O:5][C@@:6]12[H:10]>>[O:1]=[C:2]([C@@:6]1([H:10])[C:3]([H:7])=[C:4]([H:9])[O:5]1)[H:8]"
O       -0.23755270       2.32567171      -0.46532676
C       -0.14974923       1.31949950       0.16361972
C       -0.81986841      -0.43690845       0.19438964
C        0.21973029      -1.22594547      -0.34998740
O        0.98270133      -0.36858814      -1.12831414
C        0.87236603       0.21685860       0.17262166
H       -1.84292867      -0.67855399      -0.06437938
H       -1.19372615       0.83753725       1.08429448
H        0.41327008      -2.28847506      -0.40436819
H        1.75575742       0.29890406       0.79745036
