13
Frame=0 idx=003667 GeodesicLength=0.0 rxn_smarts="[C:1]([C:2]1([O:3][H:9])[C:4]([H:10])([H:11])[C:5]1([H:12])[H:13])([H:6])([H:7])[H:8]>>[C:1]([C:2]1=[C:4]([H:10])[C:5]1([H:12])[H:13])([H:6])([H:7])[H:8].[O:3]([H:9])[H:11]"
C       -1.21921784      -0.67049143       0.71083445
C       -0.03578812      -0.11129263       0.01583579
O       -0.53324613       0.22959360      -1.64145051
C        1.29285538      -0.45320907      -0.28473209
C        1.00187726       0.86660052       0.40787850
H       -0.92285756      -0.89099472       1.73922025
H       -1.54889379      -1.59736530       0.24175702
H       -2.05301726       0.03142905       0.74119572
H       -0.61836674       1.17942151      -1.78768904
H        1.83659366      -1.28496247       0.13952168
H        0.53425476      -0.08256437      -1.63089692
H        1.12587110       0.98507270       1.48465799
H        1.13993529       1.79876262      -0.13613289
13
Frame=1 idx=003667 GeodesicLength=0.06531188345881392 rxn_smarts="[C:1]([C:2]1([O:3][H:9])[C:4]([H:10])([H:11])[C:5]1([H:12])[H:13])([H:6])([H:7])[H:8]>>[C:1]([C:2]1=[C:4]([H:10])[C:5]1([H:12])[H:13])([H:6])([H:7])[H:8].[O:3]([H:9])[H:11]"
C       -1.21943547      -0.67084499       0.71399794
C       -0.03825323      -0.10673546       0.01931802
O       -0.53466182       0.23215105      -1.65337322
C        1.28873693      -0.45124444      -0.28230916
C        1.00368804       0.86688436       0.41444890
H       -0.92813870      -0.88373148       1.74532105
H       -1.54288352      -1.60220704       0.24938411
H       -2.05615219       0.02824701       0.73345804
H       -0.63091954       1.18126066      -1.79497446
H        1.83398174      -1.28725681       0.13101358
H        0.54717002      -0.08699090      -1.63729923
H        1.13614759       0.98125741       1.49037643
H        1.14072015       1.79921063      -0.12936199
13
Frame=2 idx=003667 GeodesicLength=0.13062249976648183 rxn_smarts="[C:1]([C:2]1([O:3][H:9])[C:4]([H:10])([H:11])[C:5]1([H:12])[H:13])([H:6])([H:7])[H:8]>>[C:1]([C:2]1=[C:4]([H:10])[C:5]1([H:12])[H:13])([H:6])([H:7])[H:8].[O:3]([H:9])[H:11]"
C       -1.21966581      -0.67114227       0.71719145
C       -0.04072577      -0.10212958       0.02285955
O       -0.53605111       0.23479112      -1.66543190
C        1.28458168      -0.44925768      -0.27989455
C        1.00553476       0.86713078       0.42109075
H       -0.93353715      -0.87642675       1.75138954
H       -1.53686072      -1.60693078       0.25706733
H       -2.05923732       0.02500620       0.72569959
H       -0.64384572       1.18300227      -1.80226763
H        1.83132841      -1.28942510       0.12238765
H        0.56045720      -0.09159156      -1.64368435
H        1.14650392       0.97733061       1.49608559
H        1.14151762       1.79964274      -0.12249301
13
Frame=3 idx=003667 GeodesicLength=0.19591156030108836 rxn_smarts="[C:1]([C:2]1([O:3][H:9])[C:4]([H:10])([H:11])[C:5]1([H:12])[H:13])([H:6])([H:7])[H:8]>>[C:1]([C:2]1=[C:4]([H:10])[C:5]1([H:12])[H:13])([H:6])([H:7])[H:8].[O:3]([H:9])[H:11]"
C       -1.21990448      -0.67138115       0.72041079
C       -0.04320496      -0.09747510       0.02646121
O       -0.53741444       0.23752175      -1.67762768
C        1.28038569      -0.44724653      -0.27748468
C        1.00741388       0.86733930       0.42779977
H       -0.93902907      -0.86912704       1.75740562
H       -1.53085268      -1.61150568       0.26477121
H       -2.06224772       0.02172488       0.71795852
H       -0.65715284       1.18463752      -1.80956711
H        1.82863750      -1.29144425       0.11366953
H        0.57411906      -0.09639790      -1.65004129
H        1.15692060       0.97330412       1.50177951
H        1.14232947       1.80005008      -0.11553539
13
Frame=4 idx=003667 GeodesicLength=0.2611965725427491 rxn_smarts="[C:1]([C:2]1([O:3][H:9])[C:4]([H:10])([H:11])[C:5]1([H:12])[H:13])([H:6])([H:7])[H:8]>>[C:1]([C:2]1=[C:4]([H:10])[C:5]1([H:12])[H:13])([H:6])([H:7])[H:8].[O:3]([H:9])[H:11]"
C       -1.22015710      -0.67156361       0.72365897
C       -0.04569057      -0.09277232       0.03012446
O       -0.53875185       0.24035341      -1.68996366
C        1.27615250      -0.44521184      -0.27508576
C        1.00932884       0.86751122       0.43457390
H       -0.94461924      -0.86183971       1.76337254
H       -1.52486903      -1.61593589       0.27249653
H       -2.06518711       0.01840879       0.71024078
H       -0.67085610       1.18615599      -1.81687388
H        1.82590972      -1.29331565       0.10486158
H        0.58818018      -0.10140764      -1.65637133
H        1.16740028       0.96917765       1.50745533
H        1.14315949       1.80043959      -0.10848947
13
Frame=5 idx=003667 GeodesicLength=0.3264711849349686 rxn_smarts="[C:1]([C:2]1([O:3][H:9])[C:4]([H:10])([H:11])[C:5]1([H:12])[H:13])([H:6])([H:7])[H:8]>>[C:1]([C:2]1=[C:4]([H:10])[C:5]1([H:12])[H:13])([H:6])([H:7])[H:8].[O:3]([H:9])[H:11]"
C       -1.22042292      -0.67168747       0.72693363
C       -0.04818223      -0.08801959       0.03385023
O       -0.54006375       0.24329780      -1.70244221
C        1.27187934      -0.44315210      -0.27270038
C        1.01128077       0.86764419       0.44141267
H       -0.95030473      -0.85456657       1.76928722
H       -1.51891133      -1.62021712       0.28023691
H       -2.06805179       0.01506134       0.70254637
H       -0.68497504       1.18754791      -1.82418320
H        1.82314307      -1.29503145       0.09596949
H        0.60265375      -0.10663239      -1.66266821
H        1.17794434       0.96494703       1.51311084
H        1.14401052       1.80080843      -0.10135334
13
Frame=6 idx=003667 GeodesicLength=0.3917346521836975 rxn_smarts="[C:1]([C:2]1([O:3][H:9])[C:4]([H:10])([H:11])[C:5]1([H:12])[H:13])([H:6])([H:7])[H:8]>>[C:1]([C:2]1=[C:4]([H:10])[C:5]1([H:12])[H:13])([H:6])([H:7])[H:8].[O:3]([H:9])[H:11]"
C       -1.22070276      -0.67175145       0.73023348
C       -0.05067958      -0.08321555       0.03763951
O       -0.54135048       0.24636822      -1.71506593
C        1.26756487      -0.44106625      -0.27033253
C        1.01327153       0.86773656       0.44831518
H       -0.95608504      -0.84730910       1.77514841
H       -1.51298193      -1.62434786       0.28798819
H       -2.07084053       0.01168594       0.69487534
H       -0.69952984       1.18880283      -1.83149142
H        1.82033610      -1.29658628       0.08699821
H        0.61755662      -0.11208140      -1.66892671
H        1.18855522       0.96060814       1.51874353
H        1.14488584       1.80115618      -0.09412526
13
Frame=7 idx=003667 GeodesicLength=0.4569865082239493 rxn_smarts="[C:1]([C:2]1([O:3][H:9])[C:4]([H:10])([H:11])[C:5]1([H:12])[H:13])([H:6])([H:7])[H:8]>>[C:1]([C:2]1=[C:4]([H:10])[C:5]1([H:12])[H:13])([H:6])([H:7])[H:8].[O:3]([H:9])[H:11]"
C       -1.22099752      -0.67175426       0.73355722
C       -0.05318228      -0.07835874       0.04149327
O       -0.54261269       0.24957912      -1.72783751
C        1.26320767      -0.43895309      -0.26798648
C        1.01530302       0.86778678       0.45528024
H       -0.96195899      -0.84007060       1.78095444
H       -1.50708425      -1.62832591       0.29574510
H       -2.07355173       0.00828687       0.68722913
H       -0.71454132       1.18990921      -1.83879494
H        1.81748751      -1.29797446       0.07795389
H        0.63290666      -0.11776466      -1.67514108
H        1.19923493       0.95615724       1.52435057
H        1.14578899       1.80148251      -0.08680386
13
Frame=8 idx=003667 GeodesicLength=0.5222328521481006 rxn_smarts="[C:1]([C:2]1([O:3][H:9])[C:4]([H:10])([H:11])[C:5]1([H:12])[H:13])([H:6])([H:7])[H:8]>>[C:1]([C:2]1=[C:4]([H:10])[C:5]1([H:12])[H:13])([H:6])([H:7])[H:8].[O:3]([H:9])[H:11]"
C       -1.22131143      -0.67169621       0.73690481
C       -0.05569010      -0.07344740       0.04541257
O       -0.54384949       0.25294736      -1.74076039
C        1.25880912      -0.43681259      -0.26566806
C        1.01737899       0.86779571       0.46230554
H       -0.96792980      -0.83285620       1.78670555
H       -1.50122455      -1.63215349       0.30350328
H       -2.07618952       0.00486797       0.67961096
H       -0.73003243       1.19086023      -1.84608859
H        1.81460141      -1.29919262       0.06884185
H        0.64872472      -0.12369762      -1.68130631
H        1.20998614       0.95159316       1.52992834
H        1.14672694       1.80179171      -0.07938954
13
Frame=9 idx=003667 GeodesicLength=0.5874446332311956 rxn_smarts="[C:1]([C:2]1([O:3][H:9])[C:4]([H:10])([H:11])[C:5]1([H:12])[H:13])([H:6])([H:7])[H:8]>>[C:1]([C:2]1=[C:4]([H:10])[C:5]1([H:12])[H:13])([H:6])([H:7])[H:8].[O:3]([H:9])[H:11]"
C       -1.22163615      -0.67157127       0.74027213
C       -0.05820328      -0.06848033       0.04939957
O       -0.54506993       0.25647934      -1.75383429
C        1.25435810      -0.43463782      -0.26338068
C        1.01949629       0.86775493       0.46939378
H       -0.97397993      -0.82566952       1.79239417
H       -1.49540330      -1.63581316       0.31125206
H       -2.07873294       0.00143987       0.67202233
H       -0.74601224       1.19161276      -1.85338206
H        1.81165511      -1.30022904       0.05967144
H        0.66502607      -0.12986028      -1.68741202
H        1.22081307       0.94690293       1.53547623
H        1.14768915       1.80207159      -0.07187266
13
Frame=10 idx=003667 GeodesicLength=0.652668771175577 rxn_smarts="[C:1]([C:2]1([O:3][H:9])[C:4]([H:10])([H:11])[C:5]1([H:12])[H:13])([H:6])([H:7])[H:8]>>[C:1]([C:2]1=[C:4]([H:10])[C:5]1([H:12])[H:13])([H:6])([H:7])[H:8].[O:3]([H:9])[H:11]"
C       -1.22197960      -0.67138686       0.74366028
C       -0.06072234      -0.06345629       0.05345228
O       -0.54627817       0.26021216      -1.76706358
C        1.24986177      -0.43243253      -0.26112756
C        1.02165605       0.86767379       0.47653230
H       -0.98010365      -0.81855547       1.79801624
H       -1.48964615      -1.63930606       0.31896683
H       -2.08118921      -0.00198677       0.66449951
H       -0.76249235       1.19219483      -1.86066146
H        1.80867511      -1.30107414       0.05046898
H        0.68182803      -0.13632380      -1.69345219
H        1.23169236       0.94210900       1.54098372
H        1.14869813       1.80233214      -0.06427536
13
Frame=11 idx=003667 GeodesicLength=0.717871764130493 rxn_smarts="[C:1]([C:2]1([O:3][H:9])[C:4]([H:10])([H:11])[C:5]1([H:12])[H:13])([H:6])([H:7])[H:8]>>[C:1]([C:2]1=[C:4]([H:10])[C:5]1([H:12])[H:13])([H:6])([H:7])[H:8].[O:3]([H:9])[H:11]"
C       -1.22234226      -0.67113689       0.74706743
C       -0.06324603      -0.05837284       0.05757494
O       -0.54747120       0.26415499      -1.78044614
C        1.24531445      -0.43019119      -0.25892004
C        1.02386559       0.86754360       0.48372688
H       -0.98631454      -0.81147654       1.80357666
H       -1.48393690      -1.64263783       0.32666366
H       -2.08356229      -0.00541772       0.65700885
H       -0.77951045       1.19256596      -1.86792791
H        1.80564453      -1.30172970       0.04122484
H        0.69915852      -0.14305802      -1.69942277
H        1.24265300       0.93718517       1.54645056
H        1.14974758       1.80257102      -0.05657695
13
Frame=12 idx=003667 GeodesicLength=0.7830625941722705 rxn_smarts="[C:1]([C:2]1([O:3][H:9])[C:4]([H:10])([H:11])[C:5]1([H:12])[H:13])([H:6])([H:7])[H:8]>>[C:1]([C:2]1=[C:4]([H:10])[C:5]1([H:12])[H:13])([H:6])([H:7])[H:8].[O:3]([H:9])[H:11]"
C       -1.22272479      -0.67081588       0.75049106
C       -0.06577605      -0.05322301       0.06176558
O       -0.54865166       0.26832733      -1.79399391
C        1.24071108      -0.42791218      -0.25676632
C        1.02612788       0.86735975       0.49098058
H       -0.99262160      -0.80440427       1.80908084
H       -1.47825546      -1.64581951       0.33435849
H       -2.08585891      -0.00885838       0.64952811
H       -0.79710259       1.19270151      -1.87518114
H        1.80254717      -1.30219959       0.03193263
H        0.71705078      -0.15005482      -1.70530886
H        1.25371578       0.93210756       1.55187594
H        1.15083836       1.80279148      -0.04876300
13
Frame=13 idx=003667 GeodesicLength=0.8482552017818569 rxn_smarts="[C:1]([C:2]1([O:3][H:9])[C:4]([H:10])([H:11])[C:5]1([H:12])[H:13])([H:6])([H:7])[H:8]>>[C:1]([C:2]1=[C:4]([H:10])[C:5]1([H:12])[H:13])([H:6])([H:7])[H:8].[O:3]([H:9])[H:11]"
C       -1.22313121      -0.67041717       0.75392776
C       -0.06831048      -0.04800349       0.06602348
O       -0.54982229       0.27275354      -1.80770959
C        1.23605321      -0.42559484      -0.25467862
C        1.02845397       0.86711389       0.49829888
H       -0.99905078      -0.79728272       1.81453569
H       -1.47257750      -1.64886716       0.34207813
H       -2.08809727      -0.01232357       0.64201052
H       -0.81532725       1.19257295      -1.88240548
H        1.79938031      -1.30249155       0.02257930
H        0.73554509      -0.15730295      -1.71110744
H        1.26490735       0.92684886       1.55726003
H        1.15197683       1.80299422      -0.04081266
13
Frame=14 idx=003667 GeodesicLength=0.9134399641100863 rxn_smarts="[C:1]([C:2]1([O:3][H:9])[C:4]([H:10])([H:11])[C:5]1([H:12])[H:13])([H:6])([H:7])[H:8]>>[C:1]([C:2]1=[C:4]([H:10])[C:5]1([H:12])[H:13])([H:6])([H:7])[H:8].[O:3]([H:9])[H:11]"
C       -1.22355421      -0.66993444       0.75737572
C       -0.07084697      -0.04270816       0.07035034
O       -0.55097860       0.27748153      -1.82159324
C        1.23132762      -0.42323514      -0.25266695
C        1.03084661       0.86679177       0.50568261
H       -1.00562116      -0.79006540       1.81994863
H       -1.46686513      -1.65178638       0.34984874
H       -2.09027279      -0.01583543       0.63441039
H       -0.83423452       1.19215406      -1.88959438
H        1.79612382      -1.30260065       0.01316450
H        0.75466857      -0.16480345      -1.71680762
H        1.27623802       0.92137442       1.56259795
H        1.15316873       1.80316727      -0.03271671
13
Frame=15 idx=003667 GeodesicLength=0.9786282946862189 rxn_smarts="[C:1]([C:2]1([O:3][H:9])[C:4]([H:10])([H:11])[C:5]1([H:12])[H:13])([H:6])([H:7])[H:8]>>[C:1]([C:2]1=[C:4]([H:10])[C:5]1([H:12])[H:13])([H:6])([H:7])[H:8].[O:3]([H:9])[H:11]"
C       -1.22400152      -0.66937199       0.76083356
C       -0.07338870      -0.03733703       0.07474609
O       -0.55214177       0.28252517      -1.83564730
C        1.22653896      -0.42083059      -0.25074160
C        1.03330763       0.86640166       0.51312652
H       -1.01231362      -0.78279852       1.82530656
H       -1.46115852      -1.65456736       0.35763600
H       -2.09238436      -0.01937048       0.62677228
H       -0.85382255       1.19142117      -1.89675361
H        1.79278672      -1.30251931       0.00371409
H        0.77444862      -0.17257610      -1.72239733
H        1.28770791       0.91570101       1.56788130
H        1.15442119       1.80332237      -0.02447657
13
Frame=16 idx=003667 GeodesicLength=1.0438167009003532 rxn_smarts="[C:1]([C:2]1([O:3][H:9])[C:4]([H:10])([H:11])[C:5]1([H:12])[H:13])([H:6])([H:7])[H:8]>>[C:1]([C:2]1=[C:4]([H:10])[C:5]1([H:12])[H:13])([H:6])([H:7])[H:8].[O:3]([H:9])[H:11]"
C       -1.22447212      -0.66872669       0.76430035
C       -0.07593519      -0.03188646       0.07921135
O       -0.55331819       0.28792009      -1.84987309
C        1.22168094      -0.41837625      -0.24891399
C        1.03583993       0.86593720       0.52062690
H       -1.01912759      -0.77548323       1.83060763
H       -1.45545705      -1.65720361       0.36543735
H       -2.09442566      -0.02292653       0.61909479
H       -0.87412201       1.19034000      -1.90388327
H        1.78935864      -1.30224008      -0.00575604
H        0.79491963      -0.18062382      -1.72786408
H        1.29931924       0.90981405       1.57310224
H        1.15573944       1.80345534      -0.01609013
