14
Frame=0 idx=002106 GeodesicLength=0.0 rxn_smarts="[C:1]([O:2][C@@:3]([C:4]([H:11])([H:12])[H:13])([C:5]#[C:6][H:14])[H:10])([H:7])([H:8])[H:9]>>[C-:1]([O+:2]=[C:3]([C:5]#[C:6][H:14])[H:10])([H:7])[H:8].[C:4]([H:9])([H:11])([H:12])[H:13]"
C        1.39001248       0.32764648       0.90558439
O        1.56029760      -0.35996119      -0.25003758
C        0.51382946      -0.44262585      -1.04299884
C       -0.96892912      -0.96945133       0.86959254
C       -0.25508048       0.69296067      -1.39022924
C       -0.93632730       1.63718719      -1.69195508
H        1.03080566       1.35113006       0.79131639
H        2.25140401       0.20693828       1.55387637
H        0.22316399      -0.32252869       1.15060163
H        0.58287331      -1.25705155      -1.75289821
H       -1.73027068      -0.28989156       0.49742228
H       -1.03582463      -1.93760806       0.38305422
H       -1.09576066      -1.11259761       1.94568712
H       -1.53019366       2.47585322      -1.96901599
14
Frame=1 idx=002106 GeodesicLength=0.08347741450816094 rxn_smarts="[C:1]([O:2][C@@:3]([C:4]([H:11])([H:12])[H:13])([C:5]#[C:6][H:14])[H:10])([H:7])([H:8])[H:9]>>[C-:1]([O+:2]=[C:3]([C:5]#[C:6][H:14])[H:10])([H:7])[H:8].[C:4]([H:9])([H:11])([H:12])[H:13]"
C        1.40391891       0.33780964       0.90173492
O        1.55252030      -0.36846101      -0.24468297
C        0.49826495      -0.44640988      -1.03294580
C       -0.97276823      -0.98063637       0.86078288
C       -0.25584605       0.69850287      -1.38722592
C       -0.92555894       1.65034043      -1.69109536
H        1.07339691       1.36894411       0.77105397
H        2.26431397       0.20472251       1.54876617
H        0.21873753      -0.29669849       1.17574403
H        0.57679051      -1.25132762      -1.75298954
H       -1.75070288      -0.33466166       0.46280124
H       -1.01809898      -1.96540085       0.40497435
H       -1.12937753      -1.09911844       1.93594420
H       -1.53559045       2.48239476      -1.95286217
14
Frame=2 idx=002106 GeodesicLength=0.16669559334784975 rxn_smarts="[C:1]([O:2][C@@:3]([C:4]([H:11])([H:12])[H:13])([C:5]#[C:6][H:14])[H:10])([H:7])([H:8])[H:9]>>[C-:1]([O+:2]=[C:3]([C:5]#[C:6][H:14])[H:10])([H:7])[H:8].[C:4]([H:9])([H:11])([H:12])[H:13]"
C        1.41748311       0.34792158       0.89772428
O        1.54469956      -0.37667285      -0.23890761
C        0.48316164      -0.45003863      -1.02305621
C       -0.97680843      -0.99136629       0.85184232
C       -0.25666678       0.70358354      -1.38441245
C       -0.91582478       1.66251928      -1.68950063
H        1.11721640       1.38586837       0.74922500
H        2.27611685       0.20238230       1.54427252
H        0.21366690      -0.26979076       1.20006668
H        0.57116023      -1.24583691      -1.75245536
H       -1.76964439      -0.38025501       0.42788840
H       -1.00061675      -1.99137085       0.42745478
H       -1.16314889      -1.08562930       1.92462430
H       -1.54079466       2.48868553      -1.93476601
14
Frame=3 idx=002106 GeodesicLength=0.24963032450546685 rxn_smarts="[C:1]([O:2][C@@:3]([C:4]([H:11])([H:12])[H:13])([C:5]#[C:6][H:14])[H:10])([H:7])([H:8])[H:9]>>[C-:1]([O+:2]=[C:3]([C:5]#[C:6][H:14])[H:10])([H:7])[H:8].[C:4]([H:9])([H:11])([H:12])[H:13]"
C        1.43073977       0.35805693       0.89351620
O        1.53691222      -0.38459492      -0.23271794
C        0.46858747      -0.45357662      -1.01334197
C       -0.98110962      -1.00161713       0.84266388
C       -0.25742964       0.70817420      -1.38187245
C       -0.90785118       1.67334753      -1.68654485
H        1.16211515       1.40175313       0.72586572
H        2.28684139       0.20013014       1.54038898
H        0.20813455      -0.24201137       1.22358675
H        0.56610342      -1.24063518      -1.75135156
H       -1.78700834      -0.42641817       0.39270714
H       -0.98354832      -2.01547636       0.45034707
H       -1.19709134      -1.07203326       1.91168319
H       -1.54539552       2.49490107      -1.91493016
14
Frame=4 idx=002106 GeodesicLength=0.3323382088421092 rxn_smarts="[C:1]([O:2][C@@:3]([C:4]([H:11])([H:12])[H:13])([C:5]#[C:6][H:14])[H:10])([H:7])([H:8])[H:9]>>[C-:1]([O+:2]=[C:3]([C:5]#[C:6][H:14])[H:10])([H:7])[H:8].[C:4]([H:9])([H:11])([H:12])[H:13]"
C        1.44369975       0.36827901       0.88909050
O        1.52915563      -0.39221201      -0.22611747
C        0.45450163      -0.45705537      -1.00377555
C       -0.98572145      -1.01145776       0.83322856
C       -0.25817935       0.71226910      -1.37957544
C       -0.90134013       1.68296413      -1.68260338
H        1.20794489       1.41645919       0.70103347
H        2.29652611       0.19814663       1.53708406
H        0.20229142      -0.21355259       1.24640044
H        0.56161690      -1.23572715      -1.74970548
H       -1.80276491      -0.47307498       0.35738989
H       -0.96701395      -2.03776485       0.47361871
H       -1.23118788      -1.05834016       1.89714038
H       -1.54952866       2.50106683      -1.89320869
14
Frame=5 idx=002106 GeodesicLength=0.4148477561459793 rxn_smarts="[C:1]([O:2][C@@:3]([C:4]([H:11])([H:12])[H:13])([C:5]#[C:6][H:14])[H:10])([H:7])([H:8])[H:9]>>[C-:1]([O+:2]=[C:3]([C:5]#[C:6][H:14])[H:10])([H:7])[H:8].[C:4]([H:9])([H:11])([H:12])[H:13]"
C        1.45650577       0.37850113       0.88452223
O        1.52144571      -0.39954461      -0.21909555
C        0.44086707      -0.46033988      -0.99429974
C       -0.99067026      -1.02090098       0.82352071
C       -0.25887039       0.71613191      -1.37729810
C       -0.89607774       1.69175455      -1.67746805
H        1.25480879       1.42977209       0.67499241
H        2.30533981       0.19630512       1.53437318
H        0.19634481      -0.18462314       1.26868292
H        0.55761447      -1.23086720      -1.74761278
H       -1.81687126      -0.51999760       0.32212821
H       -0.95123797      -2.05820669       0.49710829
H       -1.26539111      -1.04463447       1.88100422
H       -1.55380770       2.50664977      -1.87055796
14
Frame=6 idx=002106 GeodesicLength=0.4972191056957326 rxn_smarts="[C:1]([O:2][C@@:3]([C:4]([H:11])([H:12])[H:13])([C:5]#[C:6][H:14])[H:10])([H:7])([H:8])[H:9]>>[C-:1]([O+:2]=[C:3]([C:5]#[C:6][H:14])[H:10])([H:7])[H:8].[C:4]([H:9])([H:11])([H:12])[H:13]"
C        1.46917113       0.38879467       0.87977742
O        1.51374008      -0.40657931      -0.21165114
C        0.42760248      -0.46344397      -0.98487451
C       -0.99598278      -1.03007478       0.81354333
C       -0.25960475       0.71976845      -1.37496749
C       -0.89168371       1.69993407      -1.67155237
H        1.30256559       1.44156935       0.64780606
H        2.31333577       0.19477134       1.53219041
H        0.19041248      -0.15533444       1.29056959
H        0.55405238      -1.22602464      -1.74509184
H       -1.82937183      -0.56716782       0.28705800
H       -0.93627790      -2.07694812       0.52081122
H       -1.29964615      -1.03096718       1.86330371
H       -1.55831279       2.51170237      -1.84692241
14
Frame=7 idx=002106 GeodesicLength=0.5795025308686224 rxn_smarts="[C:1]([O:2][C@@:3]([C:4]([H:11])([H:12])[H:13])([C:5]#[C:6][H:14])[H:10])([H:7])([H:8])[H:9]>>[C-:1]([O+:2]=[C:3]([C:5]#[C:6][H:14])[H:10])([H:7])[H:8].[C:4]([H:9])([H:11])([H:12])[H:13]"
C        1.48154993       0.39944267       0.87467211
O        1.50598727      -0.41329587      -0.20376169
C        0.41469889      -0.46662023      -0.97552920
C       -1.00169442      -1.03913235       0.80322967
C       -0.26049841       0.72280412      -1.37286656
C       -0.88837067       1.70699709      -1.66538570
H        1.35090855       1.45190695       0.61910641
H        2.32035826       0.19411381       1.53044019
H        0.18441727      -0.12551405       1.31203673
H        0.55108292      -1.22153599      -1.74207110
H       -1.84030512      -0.61485814       0.25206795
H       -0.92208269      -2.09418424       0.54489889
H       -1.33402052      -1.01725221       1.84394397
H       -1.56203127       2.51712844      -1.82078168
14
Frame=8 idx=002106 GeodesicLength=0.6617051649377678 rxn_smarts="[C:1]([O:2][C@@:3]([C:4]([H:11])([H:12])[H:13])([C:5]#[C:6][H:14])[H:10])([H:7])([H:8])[H:9]>>[C-:1]([O+:2]=[C:3]([C:5]#[C:6][H:14])[H:10])([H:7])[H:8].[C:4]([H:9])([H:11])([H:12])[H:13]"
C        1.49424525       0.40978716       0.86965887
O        1.49823694      -0.41976415      -0.19542183
C        0.40201138      -0.46907184      -0.96605997
C       -1.00776728      -1.04796721       0.79266006
C       -0.26134315       0.72653772      -1.36990309
C       -0.88541529       1.71471727      -1.65733638
H        1.40070457       1.46012739       0.59007159
H        2.32708981       0.19300275       1.52927921
H        0.17891314      -0.09571375       1.33362360
H        0.54818688      -1.21614382      -1.73889025
H       -1.84964948      -0.66219471       0.21776018
H       -0.90909583      -2.10972228       0.56874965
H       -1.36819166      -1.00390277       1.82318455
H       -1.56792528       2.52030826      -1.79737618
14
Frame=9 idx=002106 GeodesicLength=0.7439004129779954 rxn_smarts="[C:1]([O:2][C@@:3]([C:4]([H:11])([H:12])[H:13])([C:5]#[C:6][H:14])[H:10])([H:7])([H:8])[H:9]>>[C-:1]([O+:2]=[C:3]([C:5]#[C:6][H:14])[H:10])([H:7])[H:8].[C:4]([H:9])([H:11])([H:12])[H:13]"
C        1.50670655       0.42058558       0.86424014
O        1.49034602      -0.42596270      -0.18655332
C        0.38958840      -0.47162124      -0.95658952
C       -1.01426425      -1.05687165       0.78171390
C       -0.26240763       0.72970532      -1.36708923
C       -0.88315997       1.72154931      -1.64941665
H        1.45091642       1.46674091       0.55950279
H        2.33295775       0.19309899       1.52844227
H        0.17340856      -0.06526451       1.35500771
H        0.54586215      -1.21106311      -1.73520308
H       -1.85759101      -0.70988425       0.18370622
H       -0.89713663      -2.12405858       0.59284007
H       -1.40223550      -0.99089904       1.80086981
H       -1.57299084       2.52394499      -1.77147110
14
Frame=10 idx=002106 GeodesicLength=0.8260884297866401 rxn_smarts="[C:1]([O:2][C@@:3]([C:4]([H:11])([H:12])[H:13])([C:5]#[C:6][H:14])[H:10])([H:7])([H:8])[H:9]>>[C-:1]([O+:2]=[C:3]([C:5]#[C:6][H:14])[H:10])([H:7])[H:8].[C:4]([H:9])([H:11])([H:12])[H:13]"
C        1.51914041       0.43166358       0.85847873
O        1.48232881      -0.43188835      -0.17716653
C        0.37738002      -0.47403628      -0.94707813
C       -1.02115776      -1.06590124       0.77038793
C       -0.26367086       0.73269177      -1.36407743
C       -0.88157780       1.72793959      -1.64096292
H        1.50183894       1.47139919       0.52778325
H        2.33815861       0.19398491       1.52797332
H        0.16812973      -0.03428695       1.37636539
H        0.54396644      -1.20588021      -1.73116166
H       -1.86406599      -0.75789326       0.14996773
H       -0.88617988      -2.13714040       0.61713105
H       -1.43626339      -0.97799723       1.77692885
H       -1.57802729       2.52734485      -1.74456957
14
Frame=11 idx=002106 GeodesicLength=0.9082746832572461 rxn_smarts="[C:1]([O:2][C@@:3]([C:4]([H:11])([H:12])[H:13])([C:5]#[C:6][H:14])[H:10])([H:7])([H:8])[H:9]>>[C-:1]([O+:2]=[C:3]([C:5]#[C:6][H:14])[H:10])([H:7])[H:8].[C:4]([H:9])([H:11])([H:12])[H:13]"
C        1.53169679       0.44290333       0.85242984
O        1.47416367      -0.43756306      -0.16724372
C        0.36532836      -0.47616524      -0.93746591
C       -1.02842301      -1.07510579       0.75868542
C       -0.26512787       0.73576690      -1.36060916
C       -0.88048094       1.73427809      -1.63170087
H        1.55359853       1.47386510       0.49516450
H        2.34286067       0.19546592       1.52785828
H        0.16322612      -0.00280661       1.39787479
H        0.54238447      -1.20032070      -1.72682972
H       -1.86909253      -0.80607166       0.11664703
H       -0.87631557      -2.14902412       0.64150617
H       -1.47019205      -0.96527042       1.75139711
H       -1.58362664       2.53004825      -1.71771376
14
Frame=12 idx=002106 GeodesicLength=0.990491907425818 rxn_smarts="[C:1]([O:2][C@@:3]([C:4]([H:11])([H:12])[H:13])([C:5]#[C:6][H:14])[H:10])([H:7])([H:8])[H:9]>>[C-:1]([O+:2]=[C:3]([C:5]#[C:6][H:14])[H:10])([H:7])[H:8].[C:4]([H:9])([H:11])([H:12])[H:13]"
C        1.54436574       0.45439791       0.84599466
O        1.46581158      -0.44298707      -0.15673885
C        0.35342474      -0.47810080      -0.92775007
C       -1.03605599      -1.08458722       0.74656742
C       -0.26681214       0.73881215      -1.35676752
C       -0.87990764       1.74042283      -1.62183374
H        1.60607037       1.47404687       0.46153772
H        2.34703497       0.19777589       1.52805091
H        0.15867348       0.02938311       1.41953923
H        0.54118776      -1.19448281      -1.72217119
H       -1.87268761      -0.85451116       0.08368527
H       -0.86756472      -2.15981323       0.66602240
H       -1.50404831      -0.95269309       1.72417211
H       -1.58949225       2.53233661      -1.69030836
14
Frame=13 idx=002106 GeodesicLength=1.0727500161245542 rxn_smarts="[C:1]([O:2][C@@:3]([C:4]([H:11])([H:12])[H:13])([C:5]#[C:6][H:14])[H:10])([H:7])([H:8])[H:9]>>[C-:1]([O+:2]=[C:3]([C:5]#[C:6][H:14])[H:10])([H:7])[H:8].[C:4]([H:9])([H:11])([H:12])[H:13]"
C        1.55728348       0.46604883       0.83921043
O        1.45724518      -0.44818440      -0.14560241
C        0.34162577      -0.47973517      -0.91786731
C       -1.04402905      -1.09439933       0.73403723
C       -0.26869979       0.74202943      -1.35235037
C       -0.87975510       1.74663968      -1.61110229
H        1.65926226       1.47177071       0.42708115
H        2.35086697       0.20083330       1.52851318
H        0.15459962       0.06234668       1.44150485
H        0.54031520      -1.18816595      -1.71721565
H       -1.87493263      -0.90297676       0.05119630
H       -0.86010544      -2.16962361       0.69047946
H       -1.53766138      -0.94051264       1.69538024
H       -1.59601509       2.53392923      -1.66326481
14
Frame=14 idx=002106 GeodesicLength=1.1550562754871412 rxn_smarts="[C:1]([O:2][C@@:3]([C:4]([H:11])([H:12])[H:13])([C:5]#[C:6][H:14])[H:10])([H:7])([H:8])[H:9]>>[C-:1]([O+:2]=[C:3]([C:5]#[C:6][H:14])[H:10])([H:7])[H:8].[C:4]([H:9])([H:11])([H:12])[H:13]"
C        1.57043272       0.47795014       0.83194758
O        1.44843793      -0.45313195      -0.13380200
C        0.32994449      -0.48117706      -0.90783888
C       -1.05233272      -1.10462194       0.72104572
C       -0.27082701       0.74526965      -1.34747883
C       -0.88015054       1.75269945      -1.59971425
H        1.71309631       1.46687181       0.39169243
H        2.35427345       0.20483965       1.52921903
H        0.15097810       0.09633506       1.46371379
H        0.53986045      -1.18149188      -1.71192380
H       -1.87575632      -0.95171470       0.01901385
H       -0.85385901      -2.17847410       0.71506524
H       -1.57120334      -0.92847405       1.66475618
H       -1.60289451       2.53511992      -1.63569607
14
Frame=15 idx=002106 GeodesicLength=1.2374198453108776 rxn_smarts="[C:1]([O:2][C@@:3]([C:4]([H:11])([H:12])[H:13])([C:5]#[C:6][H:14])[H:10])([H:7])([H:8])[H:9]>>[C-:1]([O+:2]=[C:3]([C:5]#[C:6][H:14])[H:10])([H:7])[H:8].[C:4]([H:9])([H:11])([H:12])[H:13]"
C        1.58399028       0.48995263       0.82424342
O        1.43937511      -0.45784710      -0.12130663
C        0.31834008      -0.48228931      -0.89760363
C       -1.06093252      -1.11528432       0.70759971
C       -0.27317247       0.74877720      -1.34190601
C       -0.88096729       1.75893034      -1.58734203
H        1.76766271       1.45909535       0.35561316
H        2.35744848       0.20959823       1.53014242
H        0.14798013       0.13141060       1.48630735
H        0.53973576      -1.17421185      -1.70633308
H       -1.87517173      -1.00058680      -0.01282662
H       -0.84891402      -2.18640469       0.73968103
H       -1.60461275      -0.91662805       1.63229126
H       -1.61076177       2.53548777      -1.60856035
14
Frame=16 idx=002106 GeodesicLength=1.3198602534982053 rxn_smarts="[C:1]([O:2][C@@:3]([C:4]([H:11])([H:12])[H:13])([C:5]#[C:6][H:14])[H:10])([H:7])([H:8])[H:9]>>[C-:1]([O+:2]=[C:3]([C:5]#[C:6][H:14])[H:10])([H:7])[H:8].[C:4]([H:9])([H:11])([H:12])[H:13]"
C        1.59803215       0.50203730       0.81604164
O        1.43003298      -0.46233352      -0.10805351
C        0.30681683      -0.48308624      -0.88714265
C       -1.06981543      -1.12642478       0.69366305
C       -0.27571099       0.75256340      -1.33561705
C       -0.88225165       1.76531626      -1.57393743
H        1.82292494       1.44824485       0.31886446
H        2.36044854       0.21517808       1.53125383
H        0.14566737       0.16781381       1.50928909
H        0.53999066      -1.16631212      -1.70042114
H       -1.87317082      -1.04960584      -0.04439765
H       -0.84534817      -2.19345021       0.76433893
H       -1.63790517      -0.90496603       1.59786089
H       -1.61971124       2.53502506      -1.58174245
