15
Frame=0 idx=008129 GeodesicLength=0.0 rxn_smarts="[C:1]1([H:8])([H:9])[O:2][C@@:3]2([H:10])[C:4]([H:11])([H:12])[C@:5]1([H:13])[C:6]([H:14])([H:15])[O:7]2>>[C:1](=[O:2])([H:8])[H:9].[C:3]([C:4]([C:5](=[C:6]([H:14])[H:15])[H:13])([H:11])[H:12])(=[O:7])[H:10]"
C       -1.21387041       0.89476652       0.36841095
O       -1.11474306       1.09322786      -0.89825184
C        0.51295799       0.43871232      -1.29508356
C        0.10683879      -0.98396300      -0.84426670
C       -0.17089638      -0.70897420       0.59752051
C        0.93546018      -0.20934630       1.26995798
O        1.37812603       1.00799305      -0.59476683
H       -2.18956083       0.55958724       0.73639586
H       -0.70943544       1.59005240       1.04655883
H        0.43873625       0.67875613      -2.35856412
H        0.96375272      -1.64540268      -0.98862892
H       -0.74740615      -1.36593872      -1.39753313
H       -0.95373869      -1.21529988       1.14922299
H        0.81191894       0.27136358       2.23712815
H        1.95186007      -0.40553432       0.97189985
15
Frame=1 idx=008129 GeodesicLength=0.06479204141381047 rxn_smarts="[C:1]1([H:8])([H:9])[O:2][C@@:3]2([H:10])[C:4]([H:11])([H:12])[C@:5]1([H:13])[C:6]([H:14])([H:15])[O:7]2>>[C:1](=[O:2])([H:8])[H:9].[C:3]([C:4]([C:5](=[C:6]([H:14])[H:15])[H:13])([H:11])[H:12])(=[O:7])[H:10]"
C       -1.22746726       0.90071243       0.36808683
O       -1.11959085       1.10201604      -0.89918225
C        0.51269344       0.43699194      -1.29345121
C        0.10573839      -0.98415061      -0.84441678
C       -0.16727112      -0.71070761       0.60025647
C        0.94353378      -0.20363021       1.26413174
O        1.37894575       1.00258804      -0.58558373
H       -2.20772154       0.57077147       0.72927373
H       -0.72590934       1.60002780       1.04472039
H        0.45351115       0.67339465      -2.35882392
H        0.95727880      -1.65090119      -0.99580668
H       -0.75256686      -1.36055043      -1.39566287
H       -0.93489948      -1.23583762       1.15579649
H        0.82272861       0.26790388       2.23622121
H        1.96099651      -0.40862859       0.97444057
15
Frame=2 idx=008129 GeodesicLength=0.1295730379027779 rxn_smarts="[C:1]1([H:8])([H:9])[O:2][C@@:3]2([H:10])[C:4]([H:11])([H:12])[C@:5]1([H:13])[C:6]([H:14])([H:15])[O:7]2>>[C:1](=[O:2])([H:8])[H:9].[C:3]([C:4]([C:5](=[C:6]([H:14])[H:15])[H:13])([H:11])[H:12])(=[O:7])[H:10]"
C       -1.24117335       0.90675596       0.36773262
O       -1.12452682       1.11084326      -0.90009783
C        0.51233580       0.43526666      -1.29181578
C        0.10463809      -0.98435237      -0.84450759
C       -0.16367349      -0.71252416       0.60305693
C        0.95154604      -0.19814627       1.25838773
O        1.37962896       0.99726629      -0.57647041
H       -2.22620764       0.58284047       0.72202016
H       -0.74240923       1.61009554       1.04276401
H        0.46838309       0.66778183      -2.35892920
H        0.95074324      -1.65632366      -1.00297429
H       -0.75771308      -1.35517903      -1.39366587
H       -0.91517155      -1.25699137       1.16213163
H        0.83356922       0.26412057       2.23534402
H        1.97003074      -0.41145372       0.97702386
15
Frame=3 idx=008129 GeodesicLength=0.19434838852221714 rxn_smarts="[C:1]1([H:8])([H:9])[O:2][C@@:3]2([H:10])[C:4]([H:11])([H:12])[C@:5]1([H:13])[C:6]([H:14])([H:15])[O:7]2>>[C:1](=[O:2])([H:8])[H:9].[C:3]([C:4]([C:5](=[C:6]([H:14])[H:15])[H:13])([H:11])[H:12])(=[O:7])[H:10]"
C       -1.25500307       0.91290044       0.36734669
O       -1.12955774       1.11970624      -0.90100031
C        0.51188169       0.43353464      -1.29016994
C        0.10353273      -0.98457023      -0.84453333
C       -0.16011093      -0.71443279       0.60593080
C        0.95949443      -0.19289607       1.25273023
O        1.38016998       0.99202712      -0.56741364
H       -2.24502798       0.59583628       0.71462167
H       -0.75894780       1.62026194       1.04068476
H        0.48335624       0.66191412      -2.35886212
H        0.94413845      -1.66167295      -1.01013044
H       -0.76285033      -1.34982628      -1.39153546
H       -0.89448315      -1.27878542       1.16819597
H        0.84443911       0.26002576       2.23449193
H        1.97896836      -0.41402281       0.97964317
15
Frame=4 idx=008129 GeodesicLength=0.25912131678694156 rxn_smarts="[C:1]1([H:8])([H:9])[O:2][C@@:3]2([H:10])[C:4]([H:11])([H:12])[C@:5]1([H:13])[C:6]([H:14])([H:15])[O:7]2>>[C:1](=[O:2])([H:8])[H:9].[C:3]([C:4]([C:5](=[C:6]([H:14])[H:15])[H:13])([H:11])[H:12])(=[O:7])[H:10]"
C       -1.26897131       0.91914848       0.36692744
O       -1.13469089       1.12860066      -0.90189141
C        0.51132758       0.43179360      -1.28850618
C        0.10241723      -0.98480649      -0.84448798
C       -0.15659054      -0.71644382       0.60888749
C        0.96737643      -0.18788151       1.24716360
O        1.38056234       0.98686986      -0.55839991
H       -2.26418879       0.60980026       0.70706513
H       -0.77553737       1.63053260       1.03847731
H        0.49843387       0.65578773      -2.35860395
H        0.93745692      -1.66695174      -1.01727383
H       -0.76798403      -1.34449454      -1.38926464
H       -0.87276205      -1.30123682       1.17395324
H        0.85533621       0.25563023       2.23366111
H        1.98781439      -0.41634851       0.98229258
15
Frame=5 idx=008129 GeodesicLength=0.32389108425496443 rxn_smarts="[C:1]1([H:8])([H:9])[O:2][C@@:3]2([H:10])[C:4]([H:11])([H:12])[C@:5]1([H:13])[C:6]([H:14])([H:15])[O:7]2>>[C:1](=[O:2])([H:8])[H:9].[C:3]([C:4]([C:5](=[C:6]([H:14])[H:15])[H:13])([H:11])[H:12])(=[O:7])[H:10]"
C       -1.28309254       0.92550236       0.36647279
O       -1.13993317       1.13752046      -0.90277313
C        0.51067003       0.43004008      -1.28681657
C        0.10128717      -0.98506474      -0.84436542
C       -0.15311946      -0.71857061       0.61193716
C        0.97518864      -0.18310533       1.24169223
O        1.38079942       0.98179294      -0.54941534
H       -2.28369254       0.62477189       0.69934005
H       -0.79218912       1.64091145       1.03613665
H        0.51361509       0.64940149      -2.35813622
H        0.93069241      -1.67216343      -1.02440299
H       -0.77311853      -1.33918779      -1.38684639
H       -0.84993641      -1.32435027       1.17936119
H        0.86625621       0.25094460       2.23284848
H        1.99657280      -0.41844310       0.98496752
15
Frame=6 idx=008129 GeodesicLength=0.38866121332265824 rxn_smarts="[C:1]1([H:8])([H:9])[O:2][C@@:3]2([H:10])[C:4]([H:11])([H:12])[C@:5]1([H:13])[C:6]([H:14])([H:15])[O:7]2>>[C:1](=[O:2])([H:8])[H:9].[C:3]([C:4]([C:5](=[C:6]([H:14])[H:15])[H:13])([H:11])[H:12])(=[O:7])[H:10]"
C       -1.29738291       0.93196335       0.36598225
O       -1.14529380       1.14645808      -0.90364641
C        0.50990420       0.42827059      -1.28509313
C        0.10013750      -0.98534879      -0.84415905
C       -0.14970460      -0.72082884       0.61509092
C        0.98292778      -0.17857036       1.23632034
O        1.38087224       0.97679514      -0.54044541
H       -2.30354299       0.64079642       0.69143308
H       -0.80891432       1.65140235       1.03365659
H        0.52890214       0.64275043      -2.35743547
H        0.92383783      -1.67731092      -1.03151762
H       -0.77825942      -1.33391039      -1.38427260
H       -0.82592658      -1.34812612       1.18437125
H        0.87719525       0.24597695       2.23205181
H        2.00524767      -0.42031788       0.98766344
15
Frame=7 idx=008129 GeodesicLength=0.45343092256398904 rxn_smarts="[C:1]1([H:8])([H:9])[O:2][C@@:3]2([H:10])[C:4]([H:11])([H:12])[C@:5]1([H:13])[C:6]([H:14])([H:15])[O:7]2>>[C:1](=[O:2])([H:8])[H:9].[C:3]([C:4]([C:5](=[C:6]([H:14])[H:15])[H:13])([H:11])[H:12])(=[O:7])[H:10]"
C       -1.31185694       0.93853244       0.36545452
O       -1.15078133       1.15540353      -0.90451174
C        0.50902624       0.42648027      -1.28332695
C        0.09896479      -0.98566413      -0.84386254
C       -0.14635092      -0.72323779       0.61835983
C        0.99058984      -0.17428037       1.23105293
O        1.38077294       0.97187418      -0.53147525
H       -2.32373659       0.65791467       0.68333272
H       -0.82572193       1.66200732       1.03103112
H        0.54428907       0.63583472      -2.35648204
H        0.91688852      -1.68239749      -1.03861782
H       -0.78341074      -1.32866874      -1.38153525
H       -0.80066289      -1.37255127       1.18893239
H        0.88814667       0.24073492       2.23127013
H        2.01384327      -0.42198227       0.99037794
15
Frame=8 idx=008129 GeodesicLength=0.5181979642069685 rxn_smarts="[C:1]1([H:8])([H:9])[O:2][C@@:3]2([H:10])[C:4]([H:11])([H:12])[C@:5]1([H:13])[C:6]([H:14])([H:15])[O:7]2>>[C:1](=[O:2])([H:8])[H:9].[C:3]([C:4]([C:5](=[C:6]([H:14])[H:15])[H:13])([H:11])[H:12])(=[O:7])[H:10]"
C       -1.32653107       0.94520668       0.36489059
O       -1.15640702       1.16434497      -0.90536818
C        0.50803050       0.42466486      -1.28150955
C        0.09776555      -0.98601653      -0.84346982
C       -0.14306163      -0.72582036       0.62175606
C        0.99817256      -0.17023897       1.22589476
O        1.38049073       0.96702918      -0.52249050
H       -2.34426603       0.67616827       0.67502434
H       -0.84262098       1.67272479       1.02825458
H        0.55977384       0.62865115      -2.35525021
H        0.90984002      -1.68742574      -1.04570537
H       -0.78857663      -1.32347047      -1.37862564
H       -0.77408025      -1.39759705       1.19298840
H        0.89910613       0.23522381       2.23050349
H        2.02236430      -0.42344459       0.99310705
15
Frame=9 idx=008129 GeodesicLength=0.582969910487382 rxn_smarts="[C:1]1([H:8])([H:9])[O:2][C@@:3]2([H:10])[C:4]([H:11])([H:12])[C@:5]1([H:13])[C:6]([H:14])([H:15])[O:7]2>>[C:1](=[O:2])([H:8])[H:9].[C:3]([C:4]([C:5](=[C:6]([H:14])[H:15])[H:13])([H:11])[H:12])(=[O:7])[H:10]"
C       -1.34143071       0.95196263       0.36430091
O       -1.16218426       1.17325548      -0.90621135
C        0.50691004       0.42281538      -1.27962760
C        0.09654828      -0.98641911      -0.84297592
C       -0.13982422      -0.72861772       0.62529186
C        1.00568508      -0.16645822       1.22084710
O        1.38001001       0.96226079      -0.51347341
H       -2.36513208       0.69565165       0.66647513
H       -0.85962200       1.68353383       1.02532732
H        0.57533192       0.62121539      -2.35372473
H        0.90270801      -1.69239859      -1.05279094
H       -0.79375209      -1.31833425      -1.37552974
H       -0.74613495      -1.42319700       1.19648911
H        0.91007205       0.22943975       2.22975016
H        2.03081491      -0.42471004       0.99585209
15
Frame=10 idx=008129 GeodesicLength=0.6477349879145325 rxn_smarts="[C:1]1([H:8])([H:9])[O:2][C@@:3]2([H:10])[C:4]([H:11])([H:12])[C@:5]1([H:13])[C:6]([H:14])([H:15])[O:7]2>>[C:1](=[O:2])([H:8])[H:9].[C:3]([C:4]([C:5](=[C:6]([H:14])[H:15])[H:13])([H:11])[H:12])(=[O:7])[H:10]"
C       -1.35656376       0.95881401       0.36367671
O       -1.16812080       1.18213144      -0.90704486
C        0.50566264       0.42092853      -1.27767638
C        0.09530176      -0.98687402      -0.84237507
C       -0.13664936      -0.73164270       0.62897720
C        1.01311400      -0.16293624       1.21591782
O        1.37932528       0.95756406      -0.50441120
H       -2.38630615       0.71633925       0.65770185
H       -0.87673039       1.69444734       1.02223884
H        0.59097574       0.61351355      -2.35187644
H        0.89547312      -1.69732015      -1.05987072
H       -0.79894704      -1.31326052      -1.37224411
H       -0.71677083      -1.44931211       1.19936503
H        0.92103413       0.22339345       2.22901314
H        2.03920167      -0.42578588       0.99860820
15
Frame=11 idx=008129 GeodesicLength=0.7124899695970129 rxn_smarts="[C:1]1([H:8])([H:9])[O:2][C@@:3]2([H:10])[C:4]([H:11])([H:12])[C@:5]1([H:13])[C:6]([H:14])([H:15])[O:7]2>>[C:1](=[O:2])([H:8])[H:9].[C:3]([C:4]([C:5](=[C:6]([H:14])[H:15])[H:13])([H:11])[H:12])(=[O:7])[H:10]"
C       -1.37194631       0.96575164       0.36301961
O       -1.17422727       1.19095390      -0.90786724
C        0.50428462       0.41899745      -1.27564767
C        0.09402785      -0.98739059      -0.84166404
C       -0.13352971      -0.73492569       0.63282052
C        1.02045855      -0.15968052       1.21111079
O        1.37842607       0.95293706      -0.49528924
H       -2.40776669       0.73826233       0.64870076
H       -0.89395324       1.70545579       1.01898499
H        0.60669546       0.60554977      -2.34968489
H        0.88813735      -1.70219395      -1.06695103
H       -0.80416031      -1.30826122      -1.36876133
H       -0.68596368      -1.47586828       1.20156118
H        0.93198584       0.21708600       2.22829314
H        2.04753146      -0.42667369       1.00137445
15
Frame=12 idx=008129 GeodesicLength=0.7772358862724854 rxn_smarts="[C:1]1([H:8])([H:9])[O:2][C@@:3]2([H:10])[C:4]([H:11])([H:12])[C@:5]1([H:13])[C:6]([H:14])([H:15])[O:7]2>>[C:1](=[O:2])([H:8])[H:9].[C:3]([C:4]([C:5](=[C:6]([H:14])[H:15])[H:13])([H:11])[H:12])(=[O:7])[H:10]"
C       -1.38759621       0.97276456       0.36233116
O       -1.18051531       1.19970313      -0.90867812
C        0.50277252       0.41701532      -1.27353289
C        0.09272869      -0.98797842      -0.84083981
C       -0.13045500      -0.73849933       0.63682987
C        1.02772028      -0.15669742       1.20643018
O        1.37730117       0.94837849      -0.48609205
H       -2.42948780       0.76144410       0.63946734
H       -0.91129676       1.71654822       1.01556164
H        0.62248208       0.59732817      -2.34712743
H        0.88070256      -1.70702315      -1.07403977
H       -0.80939145      -1.30334871      -1.36507326
H       -0.65370198      -1.50277584       1.20302227
H        0.94292341       0.21051617       2.22759219
H        2.05581382      -0.42737530       1.00414869
15
Frame=13 idx=008129 GeodesicLength=0.8419687043238575 rxn_smarts="[C:1]1([H:8])([H:9])[O:2][C@@:3]2([H:10])[C:4]([H:11])([H:12])[C@:5]1([H:13])[C:6]([H:14])([H:15])[O:7]2>>[C:1](=[O:2])([H:8])[H:9].[C:3]([C:4]([C:5](=[C:6]([H:14])[H:15])[H:13])([H:11])[H:12])(=[O:7])[H:10]"
C       -1.40352983       0.97983929       0.36161495
O       -1.18699709       1.20835659      -0.90947367
C        0.50112292       0.41497540      -1.27132445
C        0.09140831      -0.98864793      -0.83990079
C       -0.12741031      -0.74239932       0.64101206
C        1.03490249      -0.15399369       1.20187967
O        1.37593997       0.94388689      -0.47680608
H       -2.45143411       0.78589708       0.62999759
H       -0.92876562       1.72770856       1.01196607
H        0.63832493       0.58885545      -2.34418269
H        0.87317339      -1.71181075      -1.08114627
H       -0.81463804      -1.29853683      -1.36117261
H       -0.62000034      -1.52992308       1.20369509
H        0.95384434       0.20368182       2.22691254
H        2.06405897      -0.42788949       1.00692859
15
Frame=14 idx=008129 GeodesicLength=0.9066907584784732 rxn_smarts="[C:1]1([H:8])([H:9])[O:2][C@@:3]2([H:10])[C:4]([H:11])([H:12])[C@:5]1([H:13])[C:6]([H:14])([H:15])[O:7]2>>[C:1](=[O:2])([H:8])[H:9].[C:3]([C:4]([C:5](=[C:6]([H:14])[H:15])[H:13])([H:11])[H:12])(=[O:7])[H:10]"
C       -1.41976394       0.98696095       0.36087307
O       -1.19368437       1.21689044      -0.91025275
C        0.49933367       0.41287050      -1.26901482
C        0.09007305      -0.98941043      -0.83884681
C       -0.12437533      -0.74666307       0.64537181
C        1.04201073      -0.15157622       1.19746257
O        1.37433183       0.93946147      -0.46741760
H       -2.47356903       0.81162986       0.62029329
H       -0.94636432       1.73891903       1.00819647
H        0.65421288       0.58014033      -2.34083018
H        0.86555642      -1.71655985      -1.08828242
H       -0.81989604      -1.29384017      -1.35705230
H       -0.58489316      -1.55718885       1.20353173
H        0.96474746       0.19658006       2.22625640
H        2.07228015      -0.42821404       1.00971153
15
Frame=15 idx=008129 GeodesicLength=0.9714017025240519 rxn_smarts="[C:1]1([H:8])([H:9])[O:2][C@@:3]2([H:10])[C:4]([H:11])([H:12])[C@:5]1([H:13])[C:6]([H:14])([H:15])[O:7]2>>[C:1](=[O:2])([H:8])[H:9].[C:3]([C:4]([C:5](=[C:6]([H:14])[H:15])[H:13])([H:11])[H:12])(=[O:7])[H:10]"
C       -1.43631462       0.99411327       0.36010868
O       -1.20058919       1.22528013      -0.91101120
C        0.49740332       0.41069433      -1.26659746
C        0.08873019      -0.99027685      -0.83767894
C       -0.12132509      -0.75132801       0.64991139
C        1.04905311      -0.14945145       1.19318154
O        1.37246732       0.93510182      -0.45791443
H       -2.49584741       0.83863725       0.61035228
H       -0.96409584       1.75015844       1.00425243
H        0.67013430       0.57119436      -2.33705117
H        0.85785908      -1.72127293      -1.09546084
H       -0.82516127      -1.28927319      -1.35270534
H       -0.54844115      -1.58443912       1.20249349
H        0.97563467       0.18920676       2.22562593
H        2.08049257      -0.42834481       1.01249364
15
Frame=16 idx=008129 GeodesicLength=1.036100723031257 rxn_smarts="[C:1]1([H:8])([H:9])[O:2][C@@:3]2([H:10])[C:4]([H:11])([H:12])[C@:5]1([H:13])[C:6]([H:14])([H:15])[O:7]2>>[C:1](=[O:2])([H:8])[H:9].[C:3]([C:4]([C:5](=[C:6]([H:14])[H:15])[H:13])([H:11])[H:12])(=[O:7])[H:10]"
C       -1.45319713       1.00128031       0.35932524
O       -1.20772272       1.23350099      -0.91174580
C        0.49533161       0.40844080      -1.26406643
C        0.08738892      -0.99125807      -0.83639959
C       -0.11822944      -0.75643086       0.65463112
C        1.05604107      -0.14762524       1.18903845
O        1.37033839       0.93080775      -0.44828528
H       -2.51821820       0.86689641       0.60017357
H       -0.98196161       1.76140380       1.00013525
H        0.68607611       0.56203266      -2.33282915
H        0.85009078      -1.72595240      -1.10269560
H       -0.83042809      -1.28484996      -1.34812488
H       -0.51073560      -1.61152574       1.20055050
H        0.98651164       0.18155716       2.22502304
H        2.08871427      -0.42827761       1.01526955
