11
Frame=0 idx=003008 GeodesicLength=0.0 rxn_smarts="[C:1]([c:2]1[c:3]([H:10])[n:4]([H:11])[n:5][n:6]1)([H:7])([H:8])[H:9]>>[C:1]([C:2]1(/[C:3](=[N:4]/[H:11])[H:10])[N:5]=[N:6]1)([H:7])([H:8])[H:9]"
C       -1.52380833      -0.00924286      -0.07366649
C       -0.16039580       0.03608945       0.50400408
C        0.97890325       0.64786059      -0.07720129
N        2.14778445       0.19223726      -0.29759297
N        0.40575899      -1.94582387       0.14266083
N        0.35373763      -1.67585421       1.21989939
H       -1.60323952      -0.34454895      -1.11134577
H       -1.86285964       1.03236392      -0.03102058
H       -2.21036446      -0.57371086       0.55661123
H        0.70542994       1.70758247      -0.22896112
H        2.76905352       0.93304710      -0.60338728
11
Frame=1 idx=003008 GeodesicLength=0.11944426344744635 rxn_smarts="[C:1]([c:2]1[c:3]([H:10])[n:4]([H:11])[n:5][n:6]1)([H:7])([H:8])[H:9]>>[C:1]([C:2]1(/[C:3](=[N:4]/[H:11])[H:10])[N:5]=[N:6]1)([H:7])([H:8])[H:9]"
C       -1.52702537      -0.00868629      -0.07394592
C       -0.16440145       0.02357612       0.50771663
C        0.97548166       0.66137588      -0.04333241
N        2.12770734       0.17142854      -0.28819176
N        0.46090139      -1.91310416       0.13426174
N        0.34658459      -1.64601215       1.21530271
H       -1.59940523      -0.32846945      -1.11687442
H       -1.86968654       1.03067391      -0.01664294
H       -2.21365446      -0.58875420       0.54187693
H        0.69976483       1.71177309      -0.23694445
H        2.76373325       0.88619872      -0.62322612
11
Frame=2 idx=003008 GeodesicLength=0.23888032136515974 rxn_smarts="[C:1]([c:2]1[c:3]([H:10])[n:4]([H:11])[n:5][n:6]1)([H:7])([H:8])[H:9]>>[C:1]([C:2]1(/[C:3](=[N:4]/[H:11])[H:10])[N:5]=[N:6]1)([H:7])([H:8])[H:9]"
C       -1.53014680      -0.00804687      -0.07403971
C       -0.16731370       0.01041775       0.50888669
C        0.97215926       0.67361505      -0.01268199
N        2.10990902       0.15366032      -0.27442346
N        0.51324775      -1.88111607       0.12694493
N        0.33969731      -1.61829662       1.20914987
H       -1.59745614      -0.31279907      -1.12163515
H       -1.87564245       1.02911953      -0.00229154
H       -2.21627978      -0.60232573       0.52861003
H        0.69516823       1.71390249      -0.24626704
H        2.75665731       0.84186924      -0.64225262
11
Frame=3 idx=003008 GeodesicLength=0.3583606850812113 rxn_smarts="[C:1]([c:2]1[c:3]([H:10])[n:4]([H:11])[n:5][n:6]1)([H:7])([H:8])[H:9]>>[C:1]([C:2]1(/[C:3](=[N:4]/[H:11])[H:10])[N:5]=[N:6]1)([H:7])([H:8])[H:9]"
C       -1.53372034      -0.00744812      -0.07355161
C       -0.16920639      -0.00313675       0.50676841
C        0.96833002       0.68433161       0.01212891
N        2.09407663       0.13811451      -0.25932981
N        0.56275972      -1.84994313       0.12001362
N        0.33373227      -1.59193395       1.20119656
H       -1.59894759      -0.29839867      -1.12503383
H       -1.88115848       1.02765096       0.01211022
H       -2.21833545      -0.61424818       0.51821660
H        0.69172856       1.71442287      -0.25762054
H        2.75074104       0.80058886      -0.65489853
11
Frame=4 idx=003008 GeodesicLength=0.47786476684229023 rxn_smarts="[C:1]([c:2]1[c:3]([H:10])[n:4]([H:11])[n:5][n:6]1)([H:7])([H:8])[H:9]>>[C:1]([C:2]1(/[C:3](=[N:4]/[H:11])[H:10])[N:5]=[N:6]1)([H:7])([H:8])[H:9]"
C       -1.53771274      -0.00694279      -0.07269825
C       -0.17034918      -0.01702355       0.50183632
C        0.96401303       0.69379659       0.03219833
N        2.08031182       0.12461629      -0.24251771
N        0.60981843      -1.81951288       0.11351590
N        0.32843770      -1.56677260       1.19187792
H       -1.60331103      -0.28519589      -1.12743129
H       -1.88632852       1.02620614       0.02639332
H       -2.22007993      -0.62485473       0.51007522
H        0.68946184       1.71404883      -0.26972495
H        2.74573858       0.76163460      -0.66352482
11
Frame=5 idx=003008 GeodesicLength=0.5973894924326463 rxn_smarts="[C:1]([c:2]1[c:3]([H:10])[n:4]([H:11])[n:5][n:6]1)([H:7])([H:8])[H:9]>>[C:1]([C:2]1(/[C:3](=[N:4]/[H:11])[H:10])[N:5]=[N:6]1)([H:7])([H:8])[H:9]"
C       -1.54208984      -0.00654553      -0.07153282
C       -0.17090385      -0.03120741       0.49437356
C        0.95925284       0.70223297       0.04834191
N        2.06839380       0.11291924      -0.22439671
N        0.65466201      -1.78977346       0.10738406
N        0.32370438      -1.54267641       1.18144131
H       -1.61020008      -0.27305020      -1.12898455
H       -1.89118763       1.02475736       0.04060298
H       -2.22162181      -0.63438217       0.50389055
H        0.68819941       1.71307501      -0.28242609
H        2.74179076       0.72465058      -0.66869421
11
Frame=6 idx=003008 GeodesicLength=0.7169409555790002 rxn_smarts="[C:1]([c:2]1[c:3]([H:10])[n:4]([H:11])[n:5][n:6]1)([H:7])([H:8])[H:9]>>[C:1]([C:2]1(/[C:3](=[N:4]/[H:11])[H:10])[N:5]=[N:6]1)([H:7])([H:8])[H:9]"
C       -1.54680146      -0.00625936      -0.07009758
C       -0.17098094      -0.04567912       0.48456379
C        0.95410224       0.70980441       0.06123485
N        2.05806635       0.10279891      -0.20532240
N        0.69749492      -1.76069151       0.10158105
N        0.31943753      -1.51952065       1.17008718
H       -1.61932801      -0.26181520      -1.12980476
H       -1.89573139       1.02328706       0.05479498
H       -2.22300965      -0.64301169       0.49941860
H        0.68779941       1.71169125      -0.29566153
H        2.73895101       0.68939590      -0.67079419
11
Frame=7 idx=003008 GeodesicLength=0.8365212502288629 rxn_smarts="[C:1]([c:2]1[c:3]([H:10])[n:4]([H:11])[n:5][n:6]1)([H:7])([H:8])[H:9]>>[C:1]([C:2]1(/[C:3](=[N:4]/[H:11])[H:10])[N:5]=[N:6]1)([H:7])([H:8])[H:9]"
C       -1.55182205      -0.00608125      -0.06839560
C       -0.17065341      -0.06044544       0.47247065
C        0.94859373       0.71661337       0.07128773
N        2.04904660       0.09404376      -0.18571057
N        0.73848030      -1.73226160       0.09603489
N        0.31558137      -1.49718227       1.15794064
H       -1.63056354      -0.25138949      -1.12993086
H       -1.89994558       1.02179478       0.06904387
H       -2.22426176      -0.65085544       0.49655619
H        0.68815568       1.70997643      -0.30952336
H        2.73738867       0.65578715      -0.66977359
11
Frame=8 idx=003008 GeodesicLength=0.9560834678084051 rxn_smarts="[C:1]([c:2]1[c:3]([H:10])[n:4]([H:11])[n:5][n:6]1)([H:7])([H:8])[H:9]>>[C:1]([C:2]1(/[C:3](=[N:4]/[H:11])[H:10])[N:5]=[N:6]1)([H:7])([H:8])[H:9]"
C       -1.55715043      -0.00600332      -0.06640282
C       -0.16997936      -0.07553265       0.45805409
C        0.94273366       0.72269642       0.07866515
N        2.04105828       0.08644735      -0.16607137
N        0.77772194      -1.70452234       0.09065229
N        0.31209896      -1.47553314       1.14508513
H       -1.64391309      -0.24173693      -1.12933735
H       -1.90379652       1.02030444       0.08341023
H       -2.22538404      -0.65794894       0.49532070
H        0.68918248       1.70789902      -0.32412941
H        2.73742812       0.62393010      -0.66524665
11
Frame=9 idx=003008 GeodesicLength=1.0757389349442568 rxn_smarts="[C:1]([c:2]1[c:3]([H:10])[n:4]([H:11])[n:5][n:6]1)([H:7])([H:8])[H:9]>>[C:1]([C:2]1(/[C:3](=[N:4]/[H:11])[H:10])[N:5]=[N:6]1)([H:7])([H:8])[H:9]"
C       -1.56271234      -0.00603062      -0.06417183
C       -0.16900646      -0.09097931       0.44132445
C        0.93655804       0.72811738       0.08375608
N        2.03390155       0.07985922      -0.14636485
N        0.81542590      -1.67743506       0.08546555
N        0.30888171      -1.45445613       1.13161789
H       -1.65919254      -0.23276619      -1.12808263
H       -1.90721425       1.01879364       0.09790617
H       -2.22636186      -0.66438369       0.49554401
H        0.69088713       1.70561932      -0.33931762
H        2.73883312       0.59366145      -0.65767723
11
Frame=10 idx=003008 GeodesicLength=1.1953932660437867 rxn_smarts="[C:1]([c:2]1[c:3]([H:10])[n:4]([H:11])[n:5][n:6]1)([H:7])([H:8])[H:9]>>[C:1]([C:2]1(/[C:3](=[N:4]/[H:11])[H:10])[N:5]=[N:6]1)([H:7])([H:8])[H:9]"
C       -1.56848650      -0.00614894      -0.06168860
C       -0.16777226      -0.10685790       0.42215682
C        0.93005512       0.73285617       0.08660594
N        2.02740944       0.07414262      -0.12687297
N        0.85168636      -1.65106321       0.08043367
N        0.30585841      -1.43385161       1.11758813
H       -1.67645076      -0.22443792      -1.12612551
H       -1.91012088       1.01729627       0.11258393
H       -2.22717288      -0.67014982       0.49725905
H        0.69319668       1.70308128      -0.35514627
H        2.74179726       0.56513308      -0.64679419
11
Frame=11 idx=003008 GeodesicLength=1.31506173237731 rxn_smarts="[C:1]([c:2]1[c:3]([H:10])[n:4]([H:11])[n:5][n:6]1)([H:7])([H:8])[H:9]>>[C:1]([C:2]1(/[C:3](=[N:4]/[H:11])[H:10])[N:5]=[N:6]1)([H:7])([H:8])[H:9]"
C       -1.57440995      -0.00635284      -0.05897001
C       -0.16630813      -0.12325333       0.40042698
C        0.92321226       0.73690297       0.08733654
N        2.02142648       0.06918145      -0.10765827
N        0.88664920      -1.62542247       0.07557945
N        0.30293135      -1.41360733       1.10303082
H       -1.69565734      -0.21669322      -1.12344529
H       -1.91241101       1.01581742       0.12747441
H       -2.22777324      -0.67525619       0.50042726
H        0.69608126       1.70031935      -0.37155513
H        2.74625913       0.53836419      -0.63264677
11
Frame=12 idx=003008 GeodesicLength=1.4347456041868965 rxn_smarts="[C:1]([c:2]1[c:3]([H:10])[n:4]([H:11])[n:5][n:6]1)([H:7])([H:8])[H:9]>>[C:1]([C:2]1(/[C:3](=[N:4]/[H:11])[H:10])[N:5]=[N:6]1)([H:7])([H:8])[H:9]"
C       -1.58039566      -0.00663716      -0.05604030
C       -0.16463733      -0.14027037       0.37599081
C        0.91600362       0.74023295       0.08604702
N        2.01581038       0.06488778      -0.08874260
N        0.92045737      -1.60053021       0.07096511
N        0.29999353      -1.39360952       1.08797583
H       -1.71676961      -0.20946300      -1.12001658
H       -1.91395509       1.01435888       0.14260423
H       -2.22809965      -0.67970360       0.50499599
H        0.69950646       1.69737473      -0.38844731
H        2.75208597       0.51335953      -0.61533220
11
Frame=13 idx=003008 GeodesicLength=1.554440851916542 rxn_smarts="[C:1]([c:2]1[c:3]([H:10])[n:4]([H:11])[n:5][n:6]1)([H:7])([H:8])[H:9]>>[C:1]([C:2]1(/[C:3](=[N:4]/[H:11])[H:10])[N:5]=[N:6]1)([H:7])([H:8])[H:9]"
C       -1.58632592      -0.00699814      -0.05292944
C       -0.16277392      -0.15802744       0.34870949
C        0.90838763       0.74280774       0.08281648
N        2.01041770       0.06119703      -0.07013086
N        0.95324167      -1.57639822       0.06668853
N        0.29693205      -1.37373759       1.07245128
H       -1.73971321      -0.20266367      -1.11580848
H       -1.91460292       1.01291305       0.15799235
H       -2.22806905      -0.68348844       0.51089117
H        0.70343142       1.69428858      -0.40568908
H        2.75907454       0.49010709      -0.59499144
11
Frame=14 idx=003008 GeodesicLength=1.6741472036339458 rxn_smarts="[C:1]([c:2]1[c:3]([H:10])[n:4]([H:11])[n:5][n:6]1)([H:7])([H:8])[H:9]>>[C:1]([C:2]1(/[C:3](=[N:4]/[H:11])[H:10])[N:5]=[N:6]1)([H:7])([H:8])[H:9]"
C       -1.59204088      -0.00743767      -0.04967471
C       -0.16072392      -0.17663972       0.31850249
C        0.90030621       0.74457974       0.07770382
N        2.00509524       0.05804728      -0.05184747
N        0.98509101      -1.55302641       0.06287786
N        0.29363048      -1.35385674       1.05649770
H       -1.76434027      -0.19621008      -1.11078677
H       -1.91418893       1.01145804       0.17363088
H       -2.22757829      -0.68661001       0.51800274
H        0.70779493       1.69112893      -0.42307343
H        2.76695440       0.46856663      -0.57183311
11
Frame=15 idx=003008 GeodesicLength=1.7938603603375964 rxn_smarts="[C:1]([c:2]1[c:3]([H:10])[n:4]([H:11])[n:5][n:6]1)([H:7])([H:8])[H:9]>>[C:1]([C:2]1(/[C:3](=[N:4]/[H:11])[H:10])[N:5]=[N:6]1)([H:7])([H:8])[H:9]"
C       -1.59733705      -0.00795931      -0.04630095
C       -0.15848542      -0.19618802       0.28544513
C        0.89169269       0.74550139       0.07075935
N        1.99967469       0.05538599      -0.03391595
N        1.01601676      -1.53038920       0.05962596
N        0.28998264      -1.33384833       1.04015494
H       -1.79038586      -0.18998546      -1.10490930
H       -1.91255821       1.00995173       0.18951680
H       -2.22651317      -0.68909044       0.52616754
H        0.71250419       1.68794450      -0.44045994
H        2.77540873       0.44867714      -0.54608357
11
Frame=16 idx=003008 GeodesicLength=1.9135740389484681 rxn_smarts="[C:1]([c:2]1[c:3]([H:10])[n:4]([H:11])[n:5][n:6]1)([H:7])([H:8])[H:9]>>[C:1]([C:2]1(/[C:3](=[N:4]/[H:11])[H:10])[N:5]=[N:6]1)([H:7])([H:8])[H:9]"
C       -1.60196916      -0.00857222      -0.04282419
C       -0.15605648      -0.21665834       0.24991690
C        0.88249069       0.74554665       0.06204906
N        1.99396741       0.05314607      -0.01642036
N        1.04589518      -1.50842470       0.05693869
N        0.28591674      -1.31362279       1.02349510
H       -1.81738426      -0.18388773      -1.09814488
H       -1.90960597       1.00833330       0.20559048
H       -2.22476743      -0.69097999       0.53515115
H        0.71743616       1.68477934      -0.45770505
H        2.78407711       0.43034042      -0.51804691
