15
Frame=0 idx=002546 GeodesicLength=0.0 rxn_smarts="[C:1]([C:2]([N:3]([C:4](=[O:5])[C:6]([H:13])([H:14])[H:15])[H:12])([H:10])[H:11])([H:7])([H:8])[H:9]>>[C:1]([C:2](/[N:3]=[C:4]1\[O:5][C:6]1([H:13])[H:14])([H:10])[H:11])([H:7])([H:8])[H:9].[H:12][H:15]"
C       -2.24644711       0.43030051       0.32037113
C       -1.27188326      -0.39190777      -0.50819892
N        0.07638587       0.12385448      -0.40294137
C        0.99000277      -0.61484311       0.08713872
O        1.18794699      -1.77492229       0.56489323
C        2.35205681      -0.15987466       0.24118850
H       -3.26486825       0.05373445       0.20607489
H       -2.22926819       1.47618625       0.00825551
H       -1.98322076       0.38794628       1.37888760
H       -1.29132513      -1.44165982      -0.18632384
H       -1.57257613      -0.36979615      -1.55971285
H        1.31931075       1.27724254      -0.53371298
H        3.09883189      -0.50372192      -0.46579243
H        2.69528743       0.12293306       1.23014371
H        2.13976631       1.38452811      -0.38027093
15
Frame=1 idx=002546 GeodesicLength=0.08972668767044058 rxn_smarts="[C:1]([C:2]([N:3]([C:4](=[O:5])[C:6]([H:13])([H:14])[H:15])[H:12])([H:10])[H:11])([H:7])([H:8])[H:9]>>[C:1]([C:2](/[N:3]=[C:4]1\[O:5][C:6]1([H:13])[H:14])([H:10])[H:11])([H:7])([H:8])[H:9].[H:12][H:15]"
C       -2.23608081       0.43079286       0.32130412
C       -1.27132018      -0.39474514      -0.51557202
N        0.07942628       0.11730090      -0.42219578
C        0.98877780      -0.61830426       0.08412909
O        1.18563659      -1.76648688       0.58778011
C        2.35027885      -0.16206421       0.24821739
H       -3.25725277       0.06061355       0.21105594
H       -2.21415596       1.47772242       0.01295114
H       -1.96580818       0.38261310       1.37779430
H       -1.29164803      -1.44424554      -0.19394463
H       -1.57803664      -0.36908032      -1.56519759
H        1.28657179       1.28767861      -0.54281316
H        3.09702601      -0.50270358      -0.46105768
H        2.70089068       0.10269407       1.23961431
H        2.12569457       1.39821442      -0.38206554
15
Frame=2 idx=002546 GeodesicLength=0.179135855191924 rxn_smarts="[C:1]([C:2]([N:3]([C:4](=[O:5])[C:6]([H:13])([H:14])[H:15])[H:12])([H:10])[H:11])([H:7])([H:8])[H:9]>>[C:1]([C:2](/[N:3]=[C:4]1\[O:5][C:6]1([H:13])[H:14])([H:10])[H:11])([H:7])([H:8])[H:9].[H:12][H:15]"
C       -2.22604530       0.43102923       0.32224735
C       -1.27057187      -0.39724252      -0.52274506
N        0.08249617       0.11108336      -0.44009428
C        0.98756508      -0.62126722       0.08219937
O        1.18285745      -1.75740326       0.61079657
C        2.34879298      -0.16434157       0.25554181
H       -3.24982471       0.06716714       0.21531859
H       -2.19926891       1.47910876       0.01812697
H       -1.94938342       0.37653068       1.37679752
H       -1.29185773      -1.44666396      -0.20190549
H       -1.58267900      -0.36752811      -1.57062887
H        1.25339089       1.29781142      -0.55338113
H        3.09499033      -0.50212876      -0.45644734
H        2.70763345       0.08198626       1.24881967
H        2.11190459       1.41185855      -0.38464568
15
Frame=3 idx=002546 GeodesicLength=0.26827459172164214 rxn_smarts="[C:1]([C:2]([N:3]([C:4](=[O:5])[C:6]([H:13])([H:14])[H:15])[H:12])([H:10])[H:11])([H:7])([H:8])[H:9]>>[C:1]([C:2](/[N:3]=[C:4]1\[O:5][C:6]1([H:13])[H:14])([H:10])[H:11])([H:7])([H:8])[H:9].[H:12][H:15]"
C       -2.21626103       0.43109202       0.32319922
C       -1.26966812      -0.39947834      -0.52970606
N        0.08560196       0.10512000      -0.45689028
C        0.98638384      -0.62378211       0.08113659
O        1.17970398      -1.74784434       0.63355950
C        2.34756042      -0.16668774       0.26324403
H       -3.24252022       0.07346345       0.21908134
H       -2.18457629       1.48036208       0.02358714
H       -1.93371468       0.36998984       1.37585836
H       -1.29197035      -1.44893357      -0.21001463
H       -1.58666541      -0.36539874      -1.57595213
H        1.21970713       1.30763388      -0.56549865
H        3.09281343      -0.50176284      -0.45183680
H        2.71528969       0.06063717       1.25790957
H        2.09831566       1.42558921      -0.38767720
15
Frame=4 idx=002546 GeodesicLength=0.3572856820546623 rxn_smarts="[C:1]([C:2]([N:3]([C:4](=[O:5])[C:6]([H:13])([H:14])[H:15])[H:12])([H:10])[H:11])([H:7])([H:8])[H:9]>>[C:1]([C:2](/[N:3]=[C:4]1\[O:5][C:6]1([H:13])[H:14])([H:10])[H:11])([H:7])([H:8])[H:9].[H:12][H:15]"
C       -2.20671356       0.43102414       0.32414370
C       -1.26861726      -0.40149165      -0.53644121
N        0.08874938       0.09940895      -0.47270801
C        0.98524224      -0.62581798       0.08085919
O        1.17624231      -1.73789269       0.65589131
C        2.34657888      -0.16911152       0.27135673
H       -3.23532455       0.07951156       0.22244418
H       -2.17011985       1.48148106       0.02919502
H       -1.91871260       0.36317802       1.37494361
H       -1.29196803      -1.45105345      -0.21814235
H       -1.59006576      -0.36285930      -1.58113459
H        1.18544757       1.31717643      -0.57913847
H        3.09051148      -0.50149797      -0.44720654
H        2.72380134       0.03846824       1.26691031
H        2.08494842       1.43947615      -0.39097290
15
Frame=5 idx=002546 GeodesicLength=0.44623140892823865 rxn_smarts="[C:1]([C:2]([N:3]([C:4](=[O:5])[C:6]([H:13])([H:14])[H:15])[H:12])([H:10])[H:11])([H:7])([H:8])[H:9]>>[C:1]([C:2](/[N:3]=[C:4]1\[O:5][C:6]1([H:13])[H:14])([H:10])[H:11])([H:7])([H:8])[H:9].[H:12][H:15]"
C       -2.19737768       0.43087224       0.32507173
C       -1.26743248      -0.40332047      -0.54293659
N        0.09194393       0.09392171      -0.48766041
C        0.98414372      -0.62737516       0.08129770
O        1.17253240      -1.72766966       0.67761329
C        2.34584556      -0.17161019       0.27992907
H       -3.22821885       0.08534191       0.22550277
H       -2.15590774       1.48248023       0.03482998
H       -1.90427978       0.35625829       1.37402823
H       -1.29185432      -1.45302835      -0.22618005
H       -1.59295803      -0.36005358      -1.58614231
H        1.15055674       1.32642418      -0.59438594
H        3.08812050      -0.50119609      -0.44252940
H        2.73311027       0.01534001       1.27586079
H        2.07177575       1.45361494      -0.39429887
15
Frame=6 idx=002546 GeodesicLength=0.5352202988563852 rxn_smarts="[C:1]([C:2]([N:3]([C:4](=[O:5])[C:6]([H:13])([H:14])[H:15])[H:12])([H:10])[H:11])([H:7])([H:8])[H:9]>>[C:1]([C:2](/[N:3]=[C:4]1\[O:5][C:6]1([H:13])[H:14])([H:10])[H:11])([H:7])([H:8])[H:9].[H:12][H:15]"
C       -2.18825834       0.43064652       0.32597551
C       -1.26610406      -0.40496935      -0.54918725
N        0.09519323       0.08869284      -0.50178789
C        0.98309145      -0.62839119       0.08245030
O        1.16859577      -1.71720285       0.69871090
C        2.34536661      -0.17420677       0.28897973
H       -3.22120091       0.09093231       0.22828577
H       -2.14198891       1.48335905       0.04044410
H       -1.89039108       0.34929859       1.37310213
H       -1.29159654      -1.45485196      -0.23408479
H       -1.59535498      -0.35703986      -1.59096638
H        1.11497310       1.33538046      -0.61127376
H        3.08561149      -0.50082533      -0.43781058
H        2.74321535      -0.00887335       1.28472068
H        2.05884781       1.46805089      -0.39755847
15
Frame=7 idx=002546 GeodesicLength=0.6243540825455434 rxn_smarts="[C:1]([C:2]([N:3]([C:4](=[O:5])[C:6]([H:13])([H:14])[H:15])[H:12])([H:10])[H:11])([H:7])([H:8])[H:9]>>[C:1]([C:2](/[N:3]=[C:4]1\[O:5][C:6]1([H:13])[H:14])([H:10])[H:11])([H:7])([H:8])[H:9].[H:12][H:15]"
C       -2.17937516       0.43035812       0.32684258
C       -1.26462905      -0.40644237      -0.55518301
N        0.09849889       0.08375336      -0.51509849
C        0.98207750      -0.62881324       0.08435440
O        1.16445677      -1.70652868       0.71919473
C        2.34517312      -0.17691463       0.29851453
H       -3.21428878       0.09626291       0.23079436
H       -2.12841165       1.48412492       0.04598975
H       -1.87705575       0.34235613       1.37215960
H       -1.29117746      -1.45651916      -0.24181792
H       -1.59725871      -0.35386648      -1.59560003
H        1.07863864       1.34402636      -0.62985516
H        3.08297123      -0.50034960      -0.43309361
H        2.75415300      -0.03429183       1.29342529
H        2.04622741       1.48284423      -0.40062701
15
Frame=8 idx=002546 GeodesicLength=0.7136911179497377 rxn_smarts="[C:1]([C:2]([N:3]([C:4](=[O:5])[C:6]([H:13])([H:14])[H:15])[H:12])([H:10])[H:11])([H:7])([H:8])[H:9]>>[C:1]([C:2](/[N:3]=[C:4]1\[O:5][C:6]1([H:13])[H:14])([H:10])[H:11])([H:7])([H:8])[H:9].[H:12][H:15]"
C       -2.17073758       0.43001100       0.32766735
C       -1.26299966      -0.40773768      -0.56092056
N        0.10186805       0.07915198      -0.52761551
C        0.98109615      -0.62856307       0.08701878
O        1.16012154      -1.69565512       0.73908049
C        2.34527773      -0.17976095       0.30855982
H       -3.20748399       0.10131049       0.23303932
H       -2.11522208       1.48478024       0.05144175
H       -1.86426238       0.33546846       1.37119519
H       -1.29056291      -1.45802119      -0.24934927
H       -1.59867927      -0.35057126      -1.60003674
H        1.04149405       1.35231799      -0.65022624
H        3.08018785      -0.49975445      -0.42839136
H        2.76594726      -0.06102967       1.30191811
H        2.03395525       1.49805325      -0.40338113
15
Frame=9 idx=002546 GeodesicLength=0.8039360251930545 rxn_smarts="[C:1]([C:2]([N:3]([C:4](=[O:5])[C:6]([H:13])([H:14])[H:15])[H:12])([H:10])[H:11])([H:7])([H:8])[H:9]>>[C:1]([C:2](/[N:3]=[C:4]1\[O:5][C:6]1([H:13])[H:14])([H:10])[H:11])([H:7])([H:8])[H:9].[H:12][H:15]"
C       -2.16282668       0.42936305       0.32823581
C       -1.26103017      -0.40865528      -0.56631149
N        0.10529478       0.07543270      -0.53842437
C        0.98007310      -0.62700077       0.09163423
O        1.15536622      -1.68386572       0.75967367
C        2.34606919      -0.18303267       0.31859575
H       -3.20113411       0.10557198       0.23420205
H       -2.10303845       1.48516304       0.05682807
H       -1.85298579       0.32825022       1.37014955
H       -1.28945046      -1.45923463      -0.25684957
H       -1.59891801      -0.34682106      -1.60436327
H        1.00327568       1.36077763      -0.67125221
H        3.07662199      -0.49993525      -0.42483567
H        2.77972075      -0.08945648       1.30919831
H        2.02296195       1.51344325      -0.40648087
15
Frame=10 idx=002546 GeodesicLength=0.8944348872756986 rxn_smarts="[C:1]([C:2]([N:3]([C:4](=[O:5])[C:6]([H:13])([H:14])[H:15])[H:12])([H:10])[H:11])([H:7])([H:8])[H:9]>>[C:1]([C:2](/[N:3]=[C:4]1\[O:5][C:6]1([H:13])[H:14])([H:10])[H:11])([H:7])([H:8])[H:9].[H:12][H:15]"
C       -2.15536512       0.42857563       0.32868825
C       -1.25881731      -0.40932605      -0.57140099
N        0.10880724       0.07235936      -0.54816576
C        0.97905685      -0.62439145       0.09739125
O        1.15036228      -1.67159275       0.78013508
C        2.34733165      -0.18659732       0.32899377
H       -3.19503681       0.10931694       0.23484530
H       -2.09157602       1.48537546       0.06209049
H       -1.84259233       0.32103332       1.36906353
H       -1.28794208      -1.46022117      -0.26413295
H       -1.59844859      -0.34293230      -1.60850554
H        0.96407559       1.36902581      -0.69382522
H        3.07267952      -0.50032240      -0.42164953
H        2.79468770      -0.11955957       1.31576733
H        2.01277742       1.52925650      -0.40929503
15
Frame=11 idx=002546 GeodesicLength=0.9850774587013706 rxn_smarts="[C:1]([C:2]([N:3]([C:4](=[O:5])[C:6]([H:13])([H:14])[H:15])[H:12])([H:10])[H:11])([H:7])([H:8])[H:9]>>[C:1]([C:2](/[N:3]=[C:4]1\[O:5][C:6]1([H:13])[H:14])([H:10])[H:11])([H:7])([H:8])[H:9].[H:12][H:15]"
C       -2.14847191       0.42760122       0.32897369
C       -1.25631226      -0.40971059      -0.57616056
N        0.11241246       0.07009793      -0.55664954
C        0.97802500      -0.62054721       0.10452990
O        1.14506377      -1.65867076       0.80075708
C        2.34916181      -0.19055402       0.33966075
H       -3.18928129       0.11241429       0.23479380
H       -2.08101941       1.48538637       0.06721653
H       -1.83330312       0.31376933       1.36792119
H       -1.28593687      -1.46095367      -0.27120397
H       -1.59712614      -0.33887987      -1.61246872
H        0.92382232       1.37717142      -0.71777473
H        3.06822606      -0.50111962      -0.41905832
H        2.81109628      -0.15148135       1.32132147
H        2.00364329       1.54547652      -0.41185857
15
Frame=12 idx=002546 GeodesicLength=1.0757826846882599 rxn_smarts="[C:1]([C:2]([N:3]([C:4](=[O:5])[C:6]([H:13])([H:14])[H:15])[H:12])([H:10])[H:11])([H:7])([H:8])[H:9]>>[C:1]([C:2](/[N:3]=[C:4]1\[O:5][C:6]1([H:13])[H:14])([H:10])[H:11])([H:7])([H:8])[H:9].[H:12][H:15]"
C       -2.14229759       0.42637297       0.32904310
C       -1.25344519      -0.40975309      -0.58055954
N        0.11612588       0.06888871      -0.56365419
C        0.97696966      -0.61521878       0.11329857
O        1.13944580      -1.64484920       0.82189434
C        2.35167579      -0.19502262       0.35048381
H       -3.18397424       0.11468905       0.23384674
H       -2.07161146       1.48515194       0.07221644
H       -1.82538301       0.30638947       1.36671297
H       -1.28327591      -1.46138566      -0.27806826
H       -1.59477079      -0.33462681      -1.61626327
H        0.88241378       1.38533848      -0.74288401
H        3.06310216      -0.50260877      -0.41728060
H        2.82914538      -0.18543269       1.32551558
H        1.99587974       1.56206701      -0.41430167
15
Frame=13 idx=002546 GeodesicLength=1.1664703000718268 rxn_smarts="[C:1]([C:2]([N:3]([C:4](=[O:5])[C:6]([H:13])([H:14])[H:15])[H:12])([H:10])[H:11])([H:7])([H:8])[H:9]>>[C:1]([C:2](/[N:3]=[C:4]1\[O:5][C:6]1([H:13])[H:14])([H:10])[H:11])([H:7])([H:8])[H:9].[H:12][H:15]"
C       -2.13706215       0.42477263       0.32882698
C       -1.25013162      -0.40936389      -0.58456933
N        0.11995176       0.06906456      -0.56884629
C        0.97584932      -0.60806369       0.12407898
O        1.13339826      -1.62973600       0.84408718
C        2.35505026      -0.20016419       0.36129479
H       -3.17927418       0.11587305       0.23169847
H       -2.06368487       1.48459525       0.07713127
H       -1.81923117       0.29873018       1.36543173
H       -1.27976715      -1.46145911      -0.28478684
H       -1.59112905      -0.33006641      -1.61991899
H        0.83972254       1.39373714      -0.76876365
H        3.05710474      -0.50526743      -0.41665522
H        2.84920831      -0.22157294       1.32789395
H        1.98999501       1.57892085      -0.41690303
15
Frame=14 idx=002546 GeodesicLength=1.257006541983146 rxn_smarts="[C:1]([C:2]([N:3]([C:4](=[O:5])[C:6]([H:13])([H:14])[H:15])[H:12])([H:10])[H:11])([H:7])([H:8])[H:9]>>[C:1]([C:2](/[N:3]=[C:4]1\[O:5][C:6]1([H:13])[H:14])([H:10])[H:11])([H:7])([H:8])[H:9].[H:12][H:15]"
C       -2.13301454       0.42265424       0.32825025
C       -1.24624947      -0.40844738      -0.58814977
N        0.12390922       0.07104416      -0.57186581
C        0.97465053      -0.59863284       0.13727128
O        1.12683505      -1.61277192       0.86796578
C        2.35947571      -0.20617879       0.37187555
H       -3.17535739       0.11562047       0.22802031
H       -2.05765650       1.48361015       0.08199513
H       -1.81528490       0.29062683       1.36406847
H       -1.27511965      -1.46110216      -0.29139378
H       -1.58589830      -0.32512010      -1.62346960
H        0.79560859       1.40268787      -0.79491141
H        3.04995278      -0.50968053      -0.41753733
H        2.87153423      -0.26022218       1.32793149
H        1.98661466       1.59591219      -0.42005057
15
Frame=15 idx=002546 GeodesicLength=1.3472909219332831 rxn_smarts="[C:1]([C:2]([N:3]([C:4](=[O:5])[C:6]([H:13])([H:14])[H:15])[H:12])([H:10])[H:11])([H:7])([H:8])[H:9]>>[C:1]([C:2](/[N:3]=[C:4]1\[O:5][C:6]1([H:13])[H:14])([H:10])[H:11])([H:7])([H:8])[H:9].[H:12][H:15]"
C       -2.13048634       0.41980970       0.32721110
C       -1.24164872      -0.40686583      -0.59125284
N        0.12800179       0.07536534      -0.57220359
C        0.97332221      -0.58638072       0.15343649
O        1.11958493      -1.59323326       0.89438751
C        2.36524104      -0.21330506       0.38192432
H       -3.17245001       0.11347652       0.22235421
H       -2.05406502       1.48204519       0.08688085
H       -1.81414164       0.28180680       1.36260407
H       -1.26898205      -1.46021783      -0.29797384
H       -1.57867389      -0.31962764      -1.62695354
H        0.74988869       1.41261714      -0.82064961
H        3.04132915      -0.51666010      -0.42044731
H        2.89649261      -0.30168469       1.32500691
H        1.98658728       1.61285444      -0.42432472
15
Frame=16 idx=002546 GeodesicLength=1.4373165547476638 rxn_smarts="[C:1]([C:2]([N:3]([C:4](=[O:5])[C:6]([H:13])([H:14])[H:15])[H:12])([H:10])[H:11])([H:7])([H:8])[H:9]>>[C:1]([C:2](/[N:3]=[C:4]1\[O:5][C:6]1([H:13])[H:14])([H:10])[H:11])([H:7])([H:8])[H:9].[H:12][H:15]"
C       -2.12999082       0.41590051       0.32556622
C       -1.23609461      -0.40440734      -0.59382167
N        0.13224776       0.08285089      -0.56909106
C        0.97182244      -0.57047076       0.17341153
O        1.11141843      -1.56996186       0.92465792
C        2.37273123      -0.22188323       0.39099093
H       -3.17091465       0.10871508       0.21401476
H       -2.05375118       1.47964852       0.09192913
H       -1.81671055       0.27183031       1.36102476
H       -1.26079686      -1.45865859      -0.30469271
H       -1.56882939      -0.31332545      -1.63045427
H        0.70230286       1.42429775      -0.84478224
H        3.03070696      -0.52747742      -0.42612648
H        2.92457464      -0.34643456       1.31825419
H        1.99128374       1.62937615      -0.43088102
