19
Frame=0 idx=006582 GeodesicLength=0.0 rxn_smarts="[C:1]([C@@:2]1([H:11])[O:3][C:4]([H:12])([H:13])[C:5]1([C:6]([H:14])([H:15])[H:16])[C:7]([H:17])([H:18])[H:19])([H:8])([H:9])[H:10]>>[C:1]([C:2][H:11])([H:8])([H:9])[H:10].[O:3]1[C:4]([H:12])([H:13])[C:5]1([C:6]([H:14])([H:15])[H:16])[C:7]([H:17])([H:18])[H:19]"
C        2.01648829      -0.30578518      -1.34377035
C        1.36312355      -0.47390837      -0.02191869
O        0.51030296       1.26929186      -0.02583501
C       -0.82781646       1.58959388       0.28096174
C       -0.73896889       0.14638171       0.38922816
C       -0.72630266      -0.43681361       1.76433031
C       -1.31562723      -0.66141465      -0.72587450
H        2.52917538       0.65003301      -1.50246542
H        2.77579215      -1.10130148      -1.35555750
H        1.34402966      -0.49763701      -2.18370699
H        2.02758522      -0.10473133       0.76796039
H       -1.37709578       2.01323176      -0.56146444
H       -0.94258547       2.17307990       1.19632626
H       -0.06499420       0.13030233       2.41876042
H       -0.40470424      -1.47476886       1.74558036
H       -1.74276186      -0.36281490       2.16962919
H       -0.97578116      -1.69299135      -0.67788803
H       -1.04177791      -0.23923636      -1.69256800
H       -2.40808140      -0.62051143      -0.64172795
19
Frame=1 idx=006582 GeodesicLength=0.08393295045421628 rxn_smarts="[C:1]([C@@:2]1([H:11])[O:3][C:4]([H:12])([H:13])[C:5]1([C:6]([H:14])([H:15])[H:16])[C:7]([H:17])([H:18])[H:19])([H:8])([H:9])[H:10]>>[C:1]([C:2][H:11])([H:8])([H:9])[H:10].[O:3]1[C:4]([H:12])([H:13])[C:5]1([C:6]([H:14])([H:15])[H:16])[C:7]([H:17])([H:18])[H:19]"
C        2.01937791      -0.31716532      -1.33414545
C        1.36978529      -0.42220414      -0.00332454
O        0.50455333       1.27501327      -0.06473229
C       -0.82264677       1.59002739       0.28930356
C       -0.73049210       0.14356496       0.38248611
C       -0.72906414      -0.45003122       1.75448900
C       -1.32284182      -0.65567395      -0.73209488
H        2.53042389       0.63140251      -1.53583608
H        2.77932713      -1.11151075      -1.31561446
H        1.34645985      -0.54444552      -2.16462804
H        2.04018579      -0.03377309       0.77199747
H       -1.39750337       2.02033697      -0.53227532
H       -0.90324877       2.16669757       1.21240771
H       -0.06638612       0.10892021       2.41465188
H       -0.41358473      -1.49011871       1.73044715
H       -1.74610303      -0.37716920       2.15774245
H       -0.97918326      -1.68687359      -0.69853555
H       -1.06497880      -0.22449272      -1.69918328
H       -2.41408026      -0.62250466      -0.63315544
19
Frame=2 idx=006582 GeodesicLength=0.16789792072386162 rxn_smarts="[C:1]([C@@:2]1([H:11])[O:3][C:4]([H:12])([H:13])[C:5]1([C:6]([H:14])([H:15])[H:16])[C:7]([H:17])([H:18])[H:19])([H:8])([H:9])[H:10]>>[C:1]([C:2][H:11])([H:8])([H:9])[H:10].[O:3]1[C:4]([H:12])([H:13])[C:5]1([C:6]([H:14])([H:15])[H:16])[C:7]([H:17])([H:18])[H:19]"
C        2.02216028      -0.32875740      -1.32270520
C        1.37561478      -0.36946324       0.01381347
O        0.49747119       1.28067919      -0.10476718
C       -0.81684590       1.59035454       0.29747311
C       -0.72212783       0.14069257       0.37520218
C       -0.73064907      -0.46371920       1.74380540
C       -1.33092586      -0.64959038      -0.73852647
H        2.53138026       0.61060534      -1.56753717
H        2.78305143      -1.12043115      -1.27289614
H        1.34932893      -0.59189189      -2.14243535
H        2.05091290       0.03952225       0.77403136
H       -1.41728562       2.02734072      -0.50185954
H       -0.86266235       2.15959317       1.22735925
H       -0.06643145       0.08688375       2.40953264
H       -0.42085574      -1.50574554       1.71374465
H       -1.74797907      -0.39223154       2.14584344
H       -0.98398124      -1.68041191      -0.71989195
H       -1.08950694      -0.20940630      -1.70578355
H       -2.42066870      -0.62402298      -0.62440295
19
Frame=3 idx=006582 GeodesicLength=0.25200298900512175 rxn_smarts="[C:1]([C@@:2]1([H:11])[O:3][C:4]([H:12])([H:13])[C:5]1([C:6]([H:14])([H:15])[H:16])[C:7]([H:17])([H:18])[H:19])([H:8])([H:9])[H:10]>>[C:1]([C:2][H:11])([H:8])([H:9])[H:10].[O:3]1[C:4]([H:12])([H:13])[C:5]1([C:6]([H:14])([H:15])[H:16])[C:7]([H:17])([H:18])[H:19]"
C        2.02490385      -0.34035308      -1.30935842
C        1.38048597      -0.31576288       0.02932747
O        0.48913762       1.28607645      -0.14566351
C       -0.81030915       1.59050795       0.30529244
C       -0.71390641       0.13769342       0.36732975
C       -0.73097677      -0.47787890       1.73226887
C       -1.34006270      -0.64321380      -0.74508814
H        2.53218771       0.58781371      -1.59720070
H        2.78687390      -1.12789916      -1.22742551
H        1.35276186      -0.63948309      -2.11706758
H        2.05963286       0.11479262       0.77391338
H       -1.43603654       2.03417492      -0.47052719
H       -0.82096222       2.15172849       1.24090619
H       -0.06494529       0.06418678       2.40328330
H       -0.42649022      -1.52164150       1.69548132
H       -1.74827426      -0.40796147       2.13400750
H       -0.99050474      -1.67368376      -0.74187572
H       -1.11551734      -0.19409799      -1.71229122
H       -2.42799813      -0.62499870      -0.61531223
19
Frame=4 idx=006582 GeodesicLength=0.3363203817778223 rxn_smarts="[C:1]([C@@:2]1([H:11])[O:3][C:4]([H:12])([H:13])[C:5]1([C:6]([H:14])([H:15])[H:16])[C:7]([H:17])([H:18])[H:19])([H:8])([H:9])[H:10]>>[C:1]([C:2][H:11])([H:8])([H:9])[H:10].[O:3]1[C:4]([H:12])([H:13])[C:5]1([C:6]([H:14])([H:15])[H:16])[C:7]([H:17])([H:18])[H:19]"
C        2.02766120      -0.35173899      -1.29405925
C        1.38427647      -0.26129409       0.04306035
O        0.47969173       1.29101561      -0.18707711
C       -0.80295788       1.59042799       0.31258214
C       -0.70584783       0.13450090       0.35883417
C       -0.72999040      -0.49249277       1.71988476
C       -1.35039810      -0.63659356      -0.75168569
H        2.53298044       0.56323636      -1.62448746
H        2.79073940      -1.13368705      -1.17930142
H        1.35684583      -0.68675120      -2.08852236
H        2.06625036       0.19152844       0.77153572
H       -1.45333957       2.04079448      -0.43865783
H       -0.77840314       2.14310774       1.25280895
H       -0.06175139       0.04084638       2.39579383
H       -0.43052348      -1.53779887       1.67569235
H       -1.74689037      -0.42428751       2.12231579
H       -0.99902818      -1.66675948      -0.76439566
H       -1.14313353      -0.17866427      -1.71860890
H       -2.43618157      -0.62539013      -0.60571239
19
Frame=5 idx=006582 GeodesicLength=0.4209694424159971 rxn_smarts="[C:1]([C@@:2]1([H:11])[O:3][C:4]([H:12])([H:13])[C:5]1([C:6]([H:14])([H:15])[H:16])[C:7]([H:17])([H:18])[H:19])([H:8])([H:9])[H:10]>>[C:1]([C:2][H:11])([H:8])([H:9])[H:10].[O:3]1[C:4]([H:12])([H:13])[C:5]1([C:6]([H:14])([H:15])[H:16])[C:7]([H:17])([H:18])[H:19]"
C        2.03049007      -0.36271130      -1.27676696
C        1.38687769      -0.20630754       0.05484938
O        0.46932167       1.29531584      -0.22865809
C       -0.79475952       1.59007025       0.31917507
C       -0.69795937       0.13106155       0.34968054
C       -0.72764060      -0.50755497       1.70662370
C       -1.36204176      -0.62974206      -0.75820124
H        2.53386169       0.53703487      -1.64915747
H        2.79466249      -1.13746595      -1.12856225
H        1.36166588      -0.73335751      -2.05673316
H        2.07070142       0.26913953       0.76675737
H       -1.46896216       2.04718741      -0.40660829
H       -0.73526900       2.13375510       1.26287799
H       -0.05667476       0.01686169       2.38691739
H       -0.43304199      -1.55422780       1.65433670
H       -1.74371054      -0.44113320       2.11079516
H       -1.00981413      -1.65965624      -0.78729726
H       -1.17243370      -0.16315833      -1.72460101
H       -2.44527339      -0.62511136      -0.59542757
19
Frame=6 idx=006582 GeodesicLength=0.5058660973516518 rxn_smarts="[C:1]([C@@:2]1([H:11])[O:3][C:4]([H:12])([H:13])[C:5]1([C:6]([H:14])([H:15])[H:16])[C:7]([H:17])([H:18])[H:19])([H:8])([H:9])[H:10]>>[C:1]([C:2][H:11])([H:8])([H:9])[H:10].[O:3]1[C:4]([H:12])([H:13])[C:5]1([C:6]([H:14])([H:15])[H:16])[C:7]([H:17])([H:18])[H:19]"
C        2.03337094      -0.37311144      -1.25761880
C        1.38825354      -0.15116658       0.06468935
O        0.45827343       1.29891830      -0.27002003
C       -0.78575338       1.58940555       0.32493417
C       -0.69023480       0.12734778       0.33988761
C       -0.72396787      -0.52299055       1.69256738
C       -1.37497073      -0.62271155      -0.76453924
H        2.53498281       0.50953906      -1.67095864
H        2.79852051      -1.13918109      -1.07564369
H        1.36717104      -0.77886914      -2.02199639
H        2.07309058       0.34695030       0.75970704
H       -1.48257276       2.05329757      -0.37483266
H       -0.69203591       2.12374291       1.27102345
H       -0.04966437      -0.00767422       2.37663062
H       -0.43423568      -1.57089720       1.63160977
H       -1.73876589      -0.45834407       2.09953810
H       -1.02283312      -1.65240584      -0.81048962
H       -1.20340211      -0.14759818      -1.73014332
H       -2.45522623      -0.62425161      -0.58434510
19
Frame=7 idx=006582 GeodesicLength=0.5909994304306754 rxn_smarts="[C:1]([C@@:2]1([H:11])[O:3][C:4]([H:12])([H:13])[C:5]1([C:6]([H:14])([H:15])[H:16])[C:7]([H:17])([H:18])[H:19])([H:8])([H:9])[H:10]>>[C:1]([C:2][H:11])([H:8])([H:9])[H:10].[O:3]1[C:4]([H:12])([H:13])[C:5]1([C:6]([H:14])([H:15])[H:16])[C:7]([H:17])([H:18])[H:19]"
C        2.03626555      -0.38279108      -1.23676714
C        1.38838958      -0.09620067       0.07255731
O        0.44675090       1.30176695      -0.31078499
C       -0.77599797       1.58841884       0.32974268
C       -0.68265488       0.12334598       0.32948202
C       -0.71901758      -0.53872425       1.67780714
C       -1.38913064      -0.61555735      -0.77062076
H        2.53649147       0.48105750      -1.68963164
H        2.80215814      -1.13884388      -1.02098463
H        1.37327428      -0.82284432      -1.98459160
H        2.07354216       0.42429326       0.75049077
H       -1.49384554       2.05907630      -0.34377429
H       -0.64918587       2.11318360       1.27718358
H       -0.04068570      -0.03266654       2.36493101
H       -0.43428716      -1.58777164       1.60772138
H       -1.73210656      -0.47578505       2.08864703
H       -1.03800103      -1.64502416      -0.83391056
H       -1.23599586      -0.13200534      -1.73513014
H       -2.46596331      -0.62292815      -0.57236719
19
Frame=8 idx=006582 GeodesicLength=0.6764170878415295 rxn_smarts="[C:1]([C@@:2]1([H:11])[O:3][C:4]([H:12])([H:13])[C:5]1([C:6]([H:14])([H:15])[H:16])[C:7]([H:17])([H:18])[H:19])([H:8])([H:9])[H:10]>>[C:1]([C:2][H:11])([H:8])([H:9])[H:10].[O:3]1[C:4]([H:12])([H:13])[C:5]1([C:6]([H:14])([H:15])[H:16])[C:7]([H:17])([H:18])[H:19]"
C        2.03919531      -0.39167576      -1.21428896
C        1.38727841      -0.04176467       0.07843919
O        0.43501444       1.30384651      -0.35069215
C       -0.76557904       1.58711304       0.33353460
C       -0.67520358       0.11905009       0.31847594
C       -0.71283569      -0.55471887       1.66233295
C       -1.40446147      -0.60826495      -0.77633080
H        2.53839432       0.45177220      -1.70518762
H        2.80563562      -1.13624742      -0.96480181
H        1.37995194      -0.86516249      -1.94461245
H        2.07215769       0.50057961       0.73916416
H       -1.50283129       2.06455722      -0.31375777
H       -0.60706547       2.10214583       1.28141326
H       -0.02970437      -0.05809710       2.35172840
H       -0.43342183      -1.60485283       1.58268617
H       -1.72371756      -0.49333298       2.07808664
H       -1.05529389      -1.63748459      -0.85739530
H       -1.27013637      -0.11632246      -1.73938958
H       -2.47737718      -0.62114036      -0.55940488
19
Frame=9 idx=006582 GeodesicLength=0.7621965463161611 rxn_smarts="[C:1]([C@@:2]1([H:11])[O:3][C:4]([H:12])([H:13])[C:5]1([C:6]([H:14])([H:15])[H:16])[C:7]([H:17])([H:18])[H:19])([H:8])([H:9])[H:10]>>[C:1]([C:2][H:11])([H:8])([H:9])[H:10].[O:3]1[C:4]([H:12])([H:13])[C:5]1([C:6]([H:14])([H:15])[H:16])[C:7]([H:17])([H:18])[H:19]"
C        2.04188125      -0.39977538      -1.19051216
C        1.38502988       0.01204635       0.08247743
O        0.42322244       1.30516686      -0.38943111
C       -0.75460735       1.58556091       0.33630617
C       -0.66782131       0.11454691       0.30697449
C       -0.70555564      -0.57085699       1.64629313
C       -1.42062999      -0.60085904      -0.78164066
H        2.54085645       0.42165331      -1.71754959
H        2.80853802      -1.13156948      -0.90766083
H        1.38696035      -0.90560903      -1.90271752
H        2.06921749       0.57529509       0.72602955
H       -1.50956113       2.06967570      -0.28490380
H       -0.56615907       2.09081384       1.28377653
H       -0.01692364      -0.08380415       2.33713948
H       -0.43185350      -1.62205578       1.55685412
H       -1.71379594      -0.51089555       2.06790838
H       -1.07410154      -1.62967953      -0.88098374
H       -1.30553751      -0.10044459      -1.74285393
H       -2.48915928      -0.61920946      -0.54550593
19
Frame=10 idx=006582 GeodesicLength=0.8484160967665074 rxn_smarts="[C:1]([C@@:2]1([H:11])[O:3][C:4]([H:12])([H:13])[C:5]1([C:6]([H:14])([H:15])[H:16])[C:7]([H:17])([H:18])[H:19])([H:8])([H:9])[H:10]>>[C:1]([C:2][H:11])([H:8])([H:9])[H:10].[O:3]1[C:4]([H:12])([H:13])[C:5]1([C:6]([H:14])([H:15])[H:16])[C:7]([H:17])([H:18])[H:19]"
C        2.04453175      -0.40700659      -1.16540659
C        1.38160548       0.06479923       0.08461078
O        0.41160432       1.30578156      -0.42687598
C       -0.74318857       1.58373597       0.33800514
C       -0.66051963       0.10978599       0.29493667
C       -0.69717440      -0.58713886       1.62965476
C       -1.43771831      -0.59334686      -0.78647576
H        2.54380909       0.39111613      -1.72671833
H        2.81107583      -1.12480468      -0.84966257
H        1.39437410      -0.94404277      -1.85876476
H        2.06472102       0.64807524       0.71108249
H       -1.51404122       2.07450917      -0.25762166
H       -0.52665833       2.07921955       1.28442510
H       -0.00217351      -0.10984118       2.32103070
H       -0.42975415      -1.63940133       1.53016180
H       -1.70226830      -0.52835706       2.05812363
H       -1.09467614      -1.62165627      -0.90452788
H       -1.34222835      -0.08439658      -1.74538462
H       -2.50132067      -0.61703066      -0.53059292
19
Frame=11 idx=006582 GeodesicLength=0.9350990247968752 rxn_smarts="[C:1]([C@@:2]1([H:11])[O:3][C:4]([H:12])([H:13])[C:5]1([C:6]([H:14])([H:15])[H:16])[C:7]([H:17])([H:18])[H:19])([H:8])([H:9])[H:10]>>[C:1]([C:2][H:11])([H:8])([H:9])[H:10].[O:3]1[C:4]([H:12])([H:13])[C:5]1([C:6]([H:14])([H:15])[H:16])[C:7]([H:17])([H:18])[H:19]"
C        2.04708408      -0.41338307      -1.13913199
C        1.37708615       0.11627318       0.08493907
O        0.40030647       1.30575941      -0.46291757
C       -0.73143296       1.58167495       0.33864272
C       -0.65326860       0.10480378       0.28240376
C       -0.68777209      -0.60350548       1.61247907
C       -1.45555253      -0.58574779      -0.79080410
H        2.54722242       0.36037389      -1.73274833
H        2.81307841      -1.11614828      -0.79108353
H        1.40208837      -0.98034520      -1.81307823
H        2.05882850       0.71859068       0.69454453
H       -1.51637336       2.07906888      -0.23211225
H       -0.48878806       2.06748597       1.28352706
H        0.01448032      -0.13614833       2.30342236
H       -0.42729836      -1.65684521       1.50275636
H       -1.68922568      -0.54563605       2.04874665
H       -1.11675960      -1.61337459      -0.92799699
H       -1.38003110      -0.06814257      -1.74689274
H       -2.51367238      -0.61475416      -0.51469585
19
Frame=12 idx=006582 GeodesicLength=1.022257046119623 rxn_smarts="[C:1]([C@@:2]1([H:11])[O:3][C:4]([H:12])([H:13])[C:5]1([C:6]([H:14])([H:15])[H:16])[C:7]([H:17])([H:18])[H:19])([H:8])([H:9])[H:10]>>[C:1]([C:2][H:11])([H:8])([H:9])[H:10].[O:3]1[C:4]([H:12])([H:13])[C:5]1([C:6]([H:14])([H:15])[H:16])[C:7]([H:17])([H:18])[H:19]"
C        2.04949447      -0.41894188      -1.11181814
C        1.37155522       0.16628470       0.08357773
O        0.38945843       1.30518420      -0.49755665
C       -0.71946030       1.57942326       0.33827038
C       -0.64605375       0.09964550       0.26940885
C       -0.67743026      -0.61991637       1.59478224
C       -1.47396961      -0.57804746      -0.79459760
H        2.55104383       0.32951135      -1.73582102
H        2.81450708      -1.10567690      -0.73210500
H        1.41002701      -1.01459506      -1.76586171
H        2.05167950       0.78661468       0.67662498
H       -1.51684137       2.08340547      -0.20843320
H       -0.45266084       2.05570437       1.28127466
H        0.03295786      -0.16269857       2.28429138
H       -0.42465318      -1.67435808       1.47470946
H       -1.67473519      -0.56267932       2.03973775
H       -1.14012853      -1.60476386      -0.95133786
H       -1.41875864      -0.05162231      -1.74728482
H       -2.52603172      -0.61247372      -0.49786143
19
Frame=13 idx=006582 GeodesicLength=1.1099011684837157 rxn_smarts="[C:1]([C@@:2]1([H:11])[O:3][C:4]([H:12])([H:13])[C:5]1([C:6]([H:14])([H:15])[H:16])[C:7]([H:17])([H:18])[H:19])([H:8])([H:9])[H:10]>>[C:1]([C:2][H:11])([H:8])([H:9])[H:10].[O:3]1[C:4]([H:12])([H:13])[C:5]1([C:6]([H:14])([H:15])[H:16])[C:7]([H:17])([H:18])[H:19]"
C        2.05172882      -0.42368377      -1.08364888
C        1.36509358       0.21466318       0.08062466
O        0.37913290       1.30409872      -0.53077395
C       -0.70735229       1.57701663       0.33691037
C       -0.63886300       0.09433862       0.25599923
C       -0.66625330      -0.63630789       1.57665148
C       -1.49281569      -0.57030119      -0.79783583
H        2.55534680       0.29876257      -1.73593257
H        2.81518077      -1.09366790      -0.67302950
H        1.41809678      -1.04661869      -1.71751414
H        2.04341590       0.85194507       0.65752424
H       -1.51554617       2.08753424      -0.18667730
H       -0.41835368       2.04397668       1.27781709
H        0.05314879      -0.18942088       2.26369374
H       -0.42200322      -1.69188715       1.44622225
H       -1.65893430      -0.57938638       2.03113518
H       -1.16453438      -1.59583823      -0.97451705
H       -1.45823966      -0.03485997      -1.74649762
H       -2.53824865      -0.61036367      -0.48015139
19
Frame=14 idx=006582 GeodesicLength=1.1980329424281286 rxn_smarts="[C:1]([C@@:2]1([H:11])[O:3][C:4]([H:12])([H:13])[C:5]1([C:6]([H:14])([H:15])[H:16])[C:7]([H:17])([H:18])[H:19])([H:8])([H:9])[H:10]>>[C:1]([C:2][H:11])([H:8])([H:9])[H:10].[O:3]1[C:4]([H:12])([H:13])[C:5]1([C:6]([H:14])([H:15])[H:16])[C:7]([H:17])([H:18])[H:19]"
C        2.05375515      -0.42766186      -1.05473254
C        1.35778870       0.26130086       0.07620683
O        0.36939194       1.30256331      -0.56266374
C       -0.69520433       1.57449457       0.33464190
C       -0.63169937       0.08892227       0.24221379
C       -0.65433273      -0.65265754       1.55810303
C       -1.51195987      -0.56250059      -0.80050023
H        2.56011096       0.26818847      -1.73325305
H        2.81510393      -1.08018013      -0.61400359
H        1.42623018      -1.07651904      -1.66822212
H        2.03415173       0.91449306       0.63741799
H       -1.51277087       2.09150114      -0.16684010
H       -0.38584426       2.03236373       1.27332126
H        0.07494394      -0.21631193       2.24161152
H       -0.41949194      -1.70941100       1.41736075
H       -1.64189036      -0.59572701       2.02290105
H       -1.18981595      -1.58654919      -0.99746767
H       -1.49828936      -0.01783101      -1.74446036
H       -2.55017750      -0.60847813      -0.46163473
19
Frame=15 idx=006582 GeodesicLength=1.286648838988893 rxn_smarts="[C:1]([C@@:2]1([H:11])[O:3][C:4]([H:12])([H:13])[C:5]1([C:6]([H:14])([H:15])[H:16])[C:7]([H:17])([H:18])[H:19])([H:8])([H:9])[H:10]>>[C:1]([C:2][H:11])([H:8])([H:9])[H:10].[O:3]1[C:4]([H:12])([H:13])[C:5]1([C:6]([H:14])([H:15])[H:16])[C:7]([H:17])([H:18])[H:19]"
C        2.05555739      -0.43089686      -1.02520100
C        1.34972375       0.30610342       0.07043466
O        0.36026587       1.30061135      -0.59330530
C       -0.68307814       1.57188894       0.33152787
C       -0.62457063       0.08342233       0.22809035
C       -0.64177112      -0.66893481       1.53917487
C       -1.53128752      -0.55466398      -0.80257808
H        2.56535992       0.23788511      -1.72789405
H        2.81426700      -1.06531267      -0.55521537
H        1.43436560      -1.10433011      -1.61820645
H        2.02400472       0.97419899       0.61646273
H       -1.50873059       2.09535433      -0.14888898
H       -0.35507171       2.02091506       1.26793084
H        0.09821520      -0.24335339       2.21805620
H       -0.41727479      -1.72689914       1.38824077
H       -1.62371119      -0.61165034       2.01501733
H       -1.21581758      -1.57689747      -1.02013133
H       -1.53873939      -0.00054738      -1.74112677
H       -2.56170681      -0.60689336      -0.44238831
19
Frame=16 idx=006582 GeodesicLength=1.375745709354941 rxn_smarts="[C:1]([C@@:2]1([H:11])[O:3][C:4]([H:12])([H:13])[C:5]1([C:6]([H:14])([H:15])[H:16])[C:7]([H:17])([H:18])[H:19])([H:8])([H:9])[H:10]>>[C:1]([C:2][H:11])([H:8])([H:9])[H:10].[O:3]1[C:4]([H:12])([H:13])[C:5]1([C:6]([H:14])([H:15])[H:16])[C:7]([H:17])([H:18])[H:19]"
C        2.05712595      -0.43341376      -0.99517055
C        1.34098034       0.34900509       0.06342000
O        0.35176554       1.29826212      -0.62279251
C       -0.67102060       1.56922395       0.32763011
C       -0.61748867       0.07785802       0.21366637
C       -0.62866897      -0.68511563       1.51990934
C       -1.55070272      -0.54681623      -0.80406172
H        2.57111456       0.20796455      -1.71995336
H        2.81266651      -1.04916428      -0.49683234
H        1.44244644      -1.13008041      -1.56767532
H        2.01308103       1.03104104       0.59479803
H       -1.50361386       2.09914101      -0.13278063
H       -0.32593832       2.00966566       1.26176587
H        0.12283748      -0.27053691       2.19304294
H       -0.41548669      -1.74432117       1.35897928
H       -1.60450203      -0.62711474       2.00747540
H       -1.24241623      -1.56690607      -1.04245269
H       -1.57942618       0.01697163      -1.73647051
H       -2.57275357      -0.60566387      -0.42249769
