15
Frame=0 idx=011387 GeodesicLength=0.0 rxn_smarts="[C:1]([C@@:2]12[C:3]([H:11])([H:12])[C@@:4]3([H:13])[O:5][C@:6]1([H:14])[C@@:7]23[H:15])([H:8])([H:9])[H:10]>>[C:1]([C@:2]1([H:14])[C:3]([H:11])([H:12])[C@@:4]2([H:13])[O+:5]=[C-:6][C@@:7]12[H:15])([H:8])([H:9])[H:10]"
C        1.88559618       0.17854828       0.20311193
C        0.40915341       0.10983120      -0.03114221
C       -0.72723801       0.73498851       0.75156133
C       -1.65656790      -0.28210482       0.06594302
O       -1.78534455       0.15498800      -1.29291474
C       -0.54562234      -0.37827915      -1.64069252
C       -0.40553670      -1.11304905      -0.30975210
H        2.13977688      -0.28306876       1.16088239
H        2.42163480      -0.36212728      -0.57933310
H        2.24239894       1.20968321       0.21409497
H       -0.95203912       1.79662716       0.63325004
H       -0.62788773       0.47902142       1.80826443
H       -2.58722836      -0.61284425       0.52136218
H        0.32989028       0.51867811      -1.34610960
H       -0.14098578      -2.15089259      -0.15852598
15
Frame=1 idx=011387 GeodesicLength=0.046501863011993425 rxn_smarts="[C:1]([C@@:2]12[C:3]([H:11])([H:12])[C@@:4]3([H:13])[O:5][C@:6]1([H:14])[C@@:7]23[H:15])([H:8])([H:9])[H:10]>>[C:1]([C@:2]1([H:14])[C:3]([H:11])([H:12])[C@@:4]2([H:13])[O+:5]=[C-:6][C@@:7]12[H:15])([H:8])([H:9])[H:10]"
C        1.88353020       0.17598693       0.20750353
C        0.40908112       0.11644392      -0.04264514
C       -0.72518997       0.73698451       0.74942622
C       -1.65509275      -0.28385059       0.07109362
O       -1.79563507       0.14985587      -1.28895386
C       -0.55570041      -0.37624721      -1.64093940
C       -0.40517688      -1.11202068      -0.31409146
H        2.12694083      -0.28777288       1.16700269
H        2.42509880      -0.36571877      -0.57043552
H        2.24498688       1.20551877       0.22396681
H       -0.95662915       1.79700900       0.62977965
H       -0.61817394       0.48529546       1.80635898
H       -2.58172233      -0.61831088       0.53177744
H        0.33783907       0.52523385      -1.36514777
H       -0.13415639      -2.14840731      -0.16469579
15
Frame=2 idx=011387 GeodesicLength=0.09297953774985687 rxn_smarts="[C:1]([C@@:2]12[C:3]([H:11])([H:12])[C@@:4]3([H:13])[O:5][C@:6]1([H:14])[C@@:7]23[H:15])([H:8])([H:9])[H:10]>>[C:1]([C@:2]1([H:14])[C:3]([H:11])([H:12])[C@@:4]2([H:13])[O+:5]=[C-:6][C@@:7]12[H:15])([H:8])([H:9])[H:10]"
C        1.88130525       0.17344742       0.21188828
C        0.40901893       0.12304408      -0.05410592
C       -0.72309339       0.73897652       0.74731307
C       -1.65351916      -0.28558269       0.07627526
O       -1.80584607       0.14470164      -1.28486382
C       -0.56568261      -0.37408135      -1.64106759
C       -0.40481641      -1.11098286      -0.31842914
H        2.11400023      -0.29239980       1.17299919
H        2.42836910      -0.36931299      -0.56148605
H        2.24733668       1.20135159       0.23381090
H       -0.96116285       1.79734792       0.62636430
H       -0.60851508       0.49161940       1.80442592
H       -2.57606799      -0.62375373       0.54220441
H        0.34604604       0.53152712      -1.38430204
H       -0.12737268      -2.14590227      -0.17102678
15
Frame=3 idx=011387 GeodesicLength=0.1394343036640806 rxn_smarts="[C:1]([C@@:2]12[C:3]([H:11])([H:12])[C@@:4]3([H:13])[O:5][C@:6]1([H:14])[C@@:7]23[H:15])([H:8])([H:9])[H:10]>>[C:1]([C@:2]1([H:14])[C:3]([H:11])([H:12])[C@@:4]2([H:13])[O+:5]=[C-:6][C@@:7]12[H:15])([H:8])([H:9])[H:10]"
C        1.87892393       0.17093153       0.21626265
C        0.40896626       0.12963043      -0.06551690
C       -0.72095209       0.74096405       0.74522477
C       -1.65184901      -0.28730089       0.08148643
O       -1.81597543       0.13952566      -1.28064628
C       -0.57556824      -0.37177884      -1.64107587
C       -0.40445705      -1.10993509      -0.32276525
H        2.10096519      -0.29694821       1.17886942
H        2.43144384      -0.37290788      -0.55249127
H        2.24945052       1.19718471       0.24362138
H       -0.96564216       1.79764386       0.62300604
H       -0.59891871       0.49799103       1.80246976
H       -2.57026862      -0.62917328       0.55263853
H        0.35452032       0.53755028      -1.40356532
H       -0.12063875      -2.14337735      -0.17751808
15
Frame=4 idx=011387 GeodesicLength=0.18587121864357614 rxn_smarts="[C:1]([C@@:2]12[C:3]([H:11])([H:12])[C@@:4]3([H:13])[O:5][C@:6]1([H:14])[C@@:7]23[H:15])([H:8])([H:9])[H:10]>>[C:1]([C@:2]1([H:14])[C:3]([H:11])([H:12])[C@@:4]2([H:13])[O+:5]=[C-:6][C@@:7]12[H:15])([H:8])([H:9])[H:10]"
C        1.87638848       0.16844039       0.22062310
C        0.40892243       0.13620174      -0.07687163
C       -0.71876981       0.74294688       0.74316317
C       -1.65008392      -0.28900521       0.08672616
O       -1.82602264       0.13432801      -1.27630195
C       -0.58535696      -0.36933758      -1.64096422
C       -0.40410080      -1.10887674      -0.32710049
H        2.08784402      -0.30141792       1.18461168
H        2.43432209      -0.37650068      -0.54345781
H        2.25133056       1.19302109       0.25339352
H       -0.97006939       1.79789693       0.61970587
H       -0.58939142       0.50440914       1.80049447
H       -2.56432618      -0.63457099       0.56307691
H        0.36327268       0.54329709      -1.42292971
H       -0.11395913      -2.14083216      -0.18416907
15
Frame=5 idx=011387 GeodesicLength=0.2322913696744688 rxn_smarts="[C:1]([C@@:2]12[C:3]([H:11])([H:12])[C@@:4]3([H:13])[O:5][C@:6]1([H:14])[C@@:7]23[H:15])([H:8])([H:9])[H:10]>>[C:1]([C@:2]1([H:14])[C:3]([H:11])([H:12])[C@@:4]2([H:13])[O+:5]=[C-:6][C@@:7]12[H:15])([H:8])([H:9])[H:10]"
C        1.87370179       0.16597590       0.22496624
C        0.40888665       0.14275734      -0.08816324
C       -0.71655074       0.74492467       0.74113120
C       -1.64822627      -0.29069545       0.09199296
O       -1.83598567       0.12910919      -1.27183276
C       -0.59504889      -0.36675506      -1.64073162
C       -0.40374978      -1.10780715      -0.33143486
H        2.07464686      -0.30580774       1.19022351
H        2.43700278      -0.38008975      -0.53439171
H        2.25297983       1.18886371       0.26312159
H       -0.97444713       1.79810721       0.61646615
H       -0.57993997       0.51087146       1.79850465
H       -2.55824422      -0.63994766       0.57351503
H        0.37231198       0.54875968      -1.44238826
H       -0.10733722      -2.13826635      -0.19097889
15
Frame=6 idx=011387 GeodesicLength=0.2786993805115493 rxn_smarts="[C:1]([C@@:2]12[C:3]([H:11])([H:12])[C@@:4]3([H:13])[O:5][C@:6]1([H:14])[C@@:7]23[H:15])([H:8])([H:9])[H:10]>>[C:1]([C@:2]1([H:14])[C:3]([H:11])([H:12])[C@@:4]2([H:13])[O+:5]=[C-:6][C@@:7]12[H:15])([H:8])([H:9])[H:10]"
C        1.87086684       0.16353934       0.22928851
C        0.40885801       0.14929680      -0.09938618
C       -0.71429855       0.74689701       0.73913130
C       -1.64627809      -0.29237162       0.09728569
O       -1.84586312       0.12386931      -1.26724056
C       -0.60464458      -0.36403000      -1.64037723
C       -0.40340582      -1.10672583      -0.33576852
H        2.06138190      -0.31011757       1.19570344
H        2.43948514      -0.38367188      -0.52530008
H        2.25440124       1.18471537       0.27280099
H       -0.97877786       1.79827468       0.61328845
H       -0.57056993       0.51737549       1.79650451
H       -2.55202613      -0.64530358       0.58394877
H        0.38164752       0.55393197      -1.46193338
H       -0.10077655      -2.13567948      -0.19794569
15
Frame=7 idx=011387 GeodesicLength=0.32509591224023043 rxn_smarts="[C:1]([C@@:2]12[C:3]([H:11])([H:12])[C@@:4]3([H:13])[O:5][C@:6]1([H:14])[C@@:7]23[H:15])([H:8])([H:9])[H:10]>>[C:1]([C@:2]1([H:14])[C:3]([H:11])([H:12])[C@@:4]2([H:13])[O+:5]=[C-:6][C@@:7]12[H:15])([H:8])([H:9])[H:10]"
C        1.86788644       0.16113217       0.23358695
C        0.40883552       0.15581992      -0.11053481
C       -0.71201729       0.74886357       0.73716586
C       -1.64424159      -0.29403379       0.10260328
O       -1.85565396       0.11860887      -1.26252655
C       -0.61414430      -0.36116012      -1.63990141
C       -0.40307128      -1.10563201      -0.34010210
H        2.04805761      -0.31434701       1.20104952
H        2.44176900      -0.38724513      -0.51618893
H        2.25559822       1.18057891       0.28242713
H       -0.98306452       1.79839937       0.61017492
H       -0.56128734       0.52392023       1.79449777
H       -2.54567429      -0.65064053       0.59437522
H        0.39128848       0.55880626      -1.48155806
H       -0.09428070      -2.13307070      -0.20506878
15
Frame=8 idx=011387 GeodesicLength=0.3714825399962507 rxn_smarts="[C:1]([C@@:2]12[C:3]([H:11])([H:12])[C@@:4]3([H:13])[O:5][C@:6]1([H:14])[C@@:7]23[H:15])([H:8])([H:9])[H:10]>>[C:1]([C@:2]1([H:14])[C:3]([H:11])([H:12])[C@@:4]2([H:13])[O+:5]=[C-:6][C@@:7]12[H:15])([H:8])([H:9])[H:10]"
C        1.86476397       0.15875633       0.23785800
C        0.40881822       0.16232703      -0.12160416
C       -0.70971085       0.75082403       0.73523737
C       -1.64211917      -0.29568180       0.10794398
O       -1.86535689       0.11332828      -1.25769264
C       -0.62354914      -0.35814438      -1.63930356
C       -0.40274814      -1.10452501      -0.34443558
H        2.03468266      -0.31849568       1.20626084
H        2.44385430      -0.39080713      -0.50706493
H        2.25657444       1.17645721       0.29199551
H       -0.98730993       1.79848135       0.60712779
H       -0.55209682       0.53050207       1.79248900
H       -2.53919283      -0.65595870       0.60478973
H        0.40124275       0.56337548      -1.50125544
H       -0.08785255      -2.13043908      -0.21234591
15
Frame=9 idx=011387 GeodesicLength=0.4178592934917021 rxn_smarts="[C:1]([C@@:2]12[C:3]([H:11])([H:12])[C@@:4]3([H:13])[O:5][C@:6]1([H:14])[C@@:7]23[H:15])([H:8])([H:9])[H:10]>>[C:1]([C@:2]1([H:14])[C:3]([H:11])([H:12])[C@@:4]2([H:13])[O+:5]=[C-:6][C@@:7]12[H:15])([H:8])([H:9])[H:10]"
C        1.86150276       0.15641333       0.24209831
C        0.40880501       0.16881814      -0.13258933
C       -0.70738308       0.75277785       0.73334861
C       -1.63991327      -0.29731562       0.11330651
O       -1.87497077       0.10802827      -1.25274082
C       -0.63285941      -0.35498154      -1.63858398
C       -0.40243877      -1.10340410      -0.34876924
H        2.02126424      -0.32256346       1.21133633
H        2.44574143      -0.39435504      -0.49793452
H        2.25733369       1.17235332       0.30150146
H       -0.99151682       1.79852060       0.60414969
H       -0.54300307       0.53711888       1.79048208
H       -2.53258509      -0.66125929       0.61518896
H        0.41151853       0.56763218      -1.52101869
H       -0.08149539      -2.12778351      -0.21977535
15
Frame=10 idx=011387 GeodesicLength=0.46423319590121903 rxn_smarts="[C:1]([C@@:2]12[C:3]([H:11])([H:12])[C@@:4]3([H:13])[O:5][C@:6]1([H:14])[C@@:7]23[H:15])([H:8])([H:9])[H:10]>>[C:1]([C@:2]1([H:14])[C:3]([H:11])([H:12])[C@@:4]2([H:13])[O+:5]=[C-:6][C@@:7]12[H:15])([H:8])([H:9])[H:10]"
C        1.85810561       0.15410452       0.24630467
C        0.40879467       0.17529361      -0.14348691
C       -0.70503770       0.75472467       0.73150131
C       -1.63762610      -0.29893544       0.11868960
O       -1.88449505       0.10270929      -1.24767251
C       -0.64207733      -0.35167173      -1.63774273
C       -0.40214509      -1.10226863      -0.35310347
H        2.00780937      -0.32655052       1.21627554
H        2.44743119      -0.39788684      -0.48880469
H        2.25787976       1.16826946       0.31094124
H       -0.99568863       1.79851701       0.60124242
H       -0.53401010       0.54376873       1.78848027
H       -2.52585352      -0.66654368       0.62556968
H        0.42212529       0.57157226      -1.54083971
H       -0.07521236      -2.12510270      -0.22735471
15
Frame=11 idx=011387 GeodesicLength=0.5105995018367163 rxn_smarts="[C:1]([C@@:2]12[C:3]([H:11])([H:12])[C@@:4]3([H:13])[O:5][C@:6]1([H:14])[C@@:7]23[H:15])([H:8])([H:9])[H:10]>>[C:1]([C@:2]1([H:14])[C:3]([H:11])([H:12])[C@@:4]2([H:13])[O+:5]=[C-:6][C@@:7]12[H:15])([H:8])([H:9])[H:10]"
C        1.85457624       0.15183151       0.25047426
C        0.40878599       0.18175439      -0.15429285
C       -0.70267838       0.75666396       0.72969853
C       -1.63526059      -0.30054103       0.12409139
O       -1.89392784       0.09737214      -1.24249028
C       -0.65120371      -0.34821387      -1.63677950
C       -0.40186941      -1.10111784      -0.35743804
H        1.99432608      -0.33045619       1.22107677
H        2.44892411      -0.40139973      -0.47968097
H        2.25821695       1.16420871       0.32031036
H       -0.99982792       1.79847056       0.59840944
H       -0.52512162       0.55044809       1.78648776
H       -2.51900297      -0.67181196       0.63592731
H        0.43306862       0.57518702      -1.56071230
H       -0.06900556      -2.12239573      -0.23508186
15
Frame=12 idx=011387 GeodesicLength=0.5569596228530527 rxn_smarts="[C:1]([C@@:2]12[C:3]([H:11])([H:12])[C@@:4]3([H:13])[O:5][C@:6]1([H:14])[C@@:7]23[H:15])([H:8])([H:9])[H:10]>>[C:1]([C@:2]1([H:14])[C:3]([H:11])([H:12])[C@@:4]2([H:13])[O+:5]=[C-:6][C@@:7]12[H:15])([H:8])([H:9])[H:10]"
C        1.85091817       0.14959629       0.25460373
C        0.40877755       0.18820146      -0.16500397
C       -0.70030852       0.75859502       0.72794287
C       -1.63281925      -0.30213249       0.12951067
O       -1.90326780       0.09201751      -1.23719645
C       -0.66024046      -0.34460841      -1.63569418
C       -0.40161352      -1.09995103      -0.36177308
H        1.98082083      -0.33428081       1.22574009
H        2.45022122      -0.40489144      -0.47057019
H        2.25834960       1.16017375       0.32960522
H       -1.00393774       1.79838092       0.59565358
H       -0.51634053       0.55715429       1.78450795
H       -2.51203729      -0.67706464       0.64625757
H        0.44435513       0.57847059      -1.58062961
H       -0.06287738      -2.11966102      -0.24295420
15
Frame=13 idx=011387 GeodesicLength=0.6033656581178083 rxn_smarts="[C:1]([C@@:2]12[C:3]([H:11])([H:12])[C@@:4]3([H:13])[O:5][C@:6]1([H:14])[C@@:7]23[H:15])([H:8])([H:9])[H:10]>>[C:1]([C@:2]1([H:14])[C:3]([H:11])([H:12])[C@@:4]2([H:13])[O+:5]=[C-:6][C@@:7]12[H:15])([H:8])([H:9])[H:10]"
C        1.84718155       0.14738008       0.25869039
C        0.40879832       0.19462640      -0.17568814
C       -0.69795596       0.76050937       0.72622584
C       -1.63033893      -0.30372214       0.13495233
O       -1.91252761       0.08668061      -1.23178434
C       -0.66924233      -0.34090779      -1.63454660
C       -0.40136787      -1.09875559      -0.36613252
H        1.96723299      -0.33811962       1.23037408
H        2.45139894      -0.40835018      -0.46148263
H        2.25839976       1.15617656       0.33894171
H       -1.00798975       1.79833290       0.59286677
H       -0.50764298       0.56393417       1.78253978
H       -2.50496181      -0.68240330       0.65663687
H        0.45580337       0.58155651      -1.60065254
H       -0.05678771      -2.11693797      -0.25094100
15
Frame=14 idx=011387 GeodesicLength=0.649646882784274 rxn_smarts="[C:1]([C@@:2]12[C:3]([H:11])([H:12])[C@@:4]3([H:13])[O:5][C@:6]1([H:14])[C@@:7]23[H:15])([H:8])([H:9])[H:10]>>[C:1]([C@:2]1([H:14])[C:3]([H:11])([H:12])[C@@:4]2([H:13])[O+:5]=[C-:6][C@@:7]12[H:15])([H:8])([H:9])[H:10]"
C        1.84323877       0.14524594       0.26272507
C        0.40876020       0.20103978      -0.18611616
C       -0.69555120       0.76242712       0.72458140
C       -1.62772267      -0.30527091       0.14038764
O       -1.92164933       0.08126567      -1.22629368
C       -0.67804153      -0.33698122      -1.63316261
C       -0.40117288      -1.09757434      -0.37043590
H        1.95378754      -0.34168529       1.23464323
H        2.45223710      -0.41179336      -0.45242584
H        2.25802132       1.15219528       0.34794452
H       -1.01207671       1.79807060       0.59038882
H       -0.49911992       0.57063014       1.78060169
H       -2.49778932      -0.68751313       0.66680336
H        0.46795315       0.58405409      -1.62053688
H       -0.05087452      -2.11411036      -0.25910465
15
Frame=15 idx=011387 GeodesicLength=0.6959608554240501 rxn_smarts="[C:1]([C@@:2]12[C:3]([H:11])([H:12])[C@@:4]3([H:13])[O:5][C@:6]1([H:14])[C@@:7]23[H:15])([H:8])([H:9])[H:10]>>[C:1]([C@:2]1([H:14])[C:3]([H:11])([H:12])[C@@:4]2([H:13])[O+:5]=[C-:6][C@@:7]12[H:15])([H:8])([H:9])[H:10]"
C        1.83923996       0.14312032       0.26674804
C        0.40876455       0.20742425      -0.19652711
C       -0.69314332       0.76430056       0.72299755
C       -1.62508410      -0.30682183       0.14583256
O       -1.93070075       0.07591573      -1.22074339
C       -0.68680783      -0.33299727      -1.63174394
C       -0.40098570      -1.09637060      -0.37476278
H        1.94025782      -0.34522114       1.23900731
H        2.45302378      -0.41523368      -0.44340998
H        2.25761826       1.14827716       0.35685964
H       -1.01610726       1.79784404       0.58791074
H       -0.49067858       0.57732054       1.77869796
H       -2.49056324      -0.69268805       0.67698250
H        0.48016392       0.58643872      -1.64052756
H       -0.04499753      -2.11130875      -0.26732155
15
Frame=16 idx=011387 GeodesicLength=0.7422831001787381 rxn_smarts="[C:1]([C@@:2]12[C:3]([H:11])([H:12])[C@@:4]3([H:13])[O:5][C@:6]1([H:14])[C@@:7]23[H:15])([H:8])([H:9])[H:10]>>[C:1]([C@:2]1([H:14])[C:3]([H:11])([H:12])[C@@:4]2([H:13])[O+:5]=[C-:6][C@@:7]12[H:15])([H:8])([H:9])[H:10]"
C        1.83508838       0.14106575       0.27064974
C        0.40872845       0.21382599      -0.20681447
C       -0.69079315       0.76620962       0.72143863
C       -1.62235734      -0.30835661       0.15130841
O       -1.93963757       0.07045929      -1.21498184
C       -0.69549654      -0.32878635      -1.63015216
C       -0.40083774      -1.09513185      -0.37909916
H        1.92675211      -0.34872632       1.24300349
H        2.45348635      -0.41861160      -0.43438810
H        2.25693591       1.14435282       0.36589529
H       -1.02011929       1.79758186       0.58548334
H       -0.48235925       0.58416276       1.77678772
H       -2.48314040      -0.69790103       0.68717797
H        0.49297215       0.58829604      -1.66051421
H       -0.03922208      -2.10844037      -0.27579466
