7
Frame=0 idx=000130 GeodesicLength=0.0 rxn_smarts="[O:1]=[C:2]([C:3](=[O:4])[C:5]#[N:6])[H:7]>>[O:1]=[C:2]([C:3](=[O:4])[N+:6]#[C-:5])[H:7]"
O       -0.94845183      -1.53119158       0.05234004
C       -0.99536355      -0.34652660       0.06069709
C        0.24940601       0.55287151      -0.03121210
O        0.24368942       1.72124704      -0.00161490
C        1.63413048      -0.35352507      -0.69531618
N        1.73946568      -0.28948145       0.47902143
H       -1.92287622       0.24660616       0.13608461
7
Frame=1 idx=000130 GeodesicLength=0.075691446209337 rxn_smarts="[O:1]=[C:2]([C:3](=[O:4])[C:5]#[N:6])[H:7]>>[O:1]=[C:2]([C:3](=[O:4])[N+:6]#[C-:5])[H:7]"
O       -0.96782485      -1.53705561       0.02593485
C       -1.00066994      -0.34641474       0.05688723
C        0.25309721       0.54963550      -0.03696748
O        0.23553711       1.72511006       0.00787995
C        1.63050380      -0.39907699      -0.68413869
N        1.77441596      -0.24130562       0.47873874
H       -1.92505928       0.24910740       0.15166541
7
Frame=2 idx=000130 GeodesicLength=0.27042064909653385 rxn_smarts="[O:1]=[C:2]([C:3](=[O:4])[C:5]#[N:6])[H:7]>>[O:1]=[C:2]([C:3](=[O:4])[N+:6]#[C-:5])[H:7]"
O       -0.97378209      -1.55682266      -0.00829046
C       -1.00333474      -0.34306364       0.05272889
C        0.25072016       0.55341513      -0.04325080
O        0.20820708       1.75386314       0.01715101
C        1.63137103      -0.46778374      -0.67367024
N        1.81401814      -0.20320585       0.48161671
H       -1.92719958       0.26359762       0.17371490
7
Frame=3 idx=000130 GeodesicLength=0.350502015402307 rxn_smarts="[O:1]=[C:2]([C:3](=[O:4])[C:5]#[N:6])[H:7]>>[O:1]=[C:2]([C:3](=[O:4])[N+:6]#[C-:5])[H:7]"
O       -0.99112797      -1.56098070      -0.03752541
C       -1.00749280      -0.34033420       0.05111196
C        0.25293859       0.55031384      -0.04564109
O        0.19464378       1.75702381       0.03144114
C        1.62859156      -0.52427329      -0.64985706
N        1.85116679      -0.14929536       0.46515480
H       -1.92871996       0.26754590       0.18531566
7
Frame=4 idx=000130 GeodesicLength=0.48648769445856355 rxn_smarts="[O:1]=[C:2]([C:3](=[O:4])[C:5]#[N:6])[H:7]>>[O:1]=[C:2]([C:3](=[O:4])[N+:6]#[C-:5])[H:7]"
O       -1.02031553      -1.55131051      -0.05809928
C       -1.01244110      -0.34267715       0.05920081
C        0.26041757       0.53746734      -0.03535699
O        0.19624580       1.73227950       0.05095304
C        1.61619798      -0.55890113      -0.61222232
N        1.88996081      -0.08279515       0.42295612
H       -1.93006553       0.26593709       0.17256862
7
Frame=5 idx=000130 GeodesicLength=0.6011535942191526 rxn_smarts="[O:1]=[C:2]([C:3](=[O:4])[C:5]#[N:6])[H:7]>>[O:1]=[C:2]([C:3](=[O:4])[N+:6]#[C-:5])[H:7]"
O       -1.03147277      -1.53639907      -0.09421766
C       -1.01658952      -0.33632177       0.05882416
C        0.25788359       0.52893177      -0.03482364
O        0.16977896       1.71795906       0.06517734
C        1.62720350      -0.62028422      -0.56270063
N        1.92823684      -0.02826497       0.37947739
H       -1.93504060       0.27437920       0.18826302
7
Frame=6 idx=000130 GeodesicLength=0.7118181866250388 rxn_smarts="[O:1]=[C:2]([C:3](=[O:4])[C:5]#[N:6])[H:7]>>[O:1]=[C:2]([C:3](=[O:4])[N+:6]#[C-:5])[H:7]"
O       -1.06890582      -1.52879349      -0.13832356
C       -1.02472641      -0.34140642       0.05920018
C        0.26662360       0.51988590      -0.02770915
O        0.17068627       1.70305986       0.07574432
C        1.61283778      -0.66367645      -0.48872180
N        1.97953806       0.04348286       0.31950166
H       -1.93605348       0.26744773       0.20030834
7
Frame=7 idx=000130 GeodesicLength=0.9364882892771839 rxn_smarts="[O:1]=[C:2]([C:3](=[O:4])[C:5]#[N:6])[H:7]>>[O:1]=[C:2]([C:3](=[O:4])[N+:6]#[C-:5])[H:7]"
O       -1.12266186      -1.53378598      -0.21557879
C       -1.04437050      -0.35423513       0.05282436
C        0.28086743       0.51240556      -0.00682735
O        0.18184763       1.71320321       0.06542684
C        1.60080532      -0.73089255      -0.39694405
N        2.05060874       0.13876733       0.25716944
H       -1.94709676       0.25453756       0.24392955
7
Frame=8 idx=000130 GeodesicLength=1.0646420819023281 rxn_smarts="[O:1]=[C:2]([C:3](=[O:4])[C:5]#[N:6])[H:7]>>[O:1]=[C:2]([C:3](=[O:4])[N+:6]#[C-:5])[H:7]"
O       -1.13331513      -1.48691753      -0.31325451
C       -1.04558331      -0.34985209       0.04330909
C        0.28273565       0.50926070      -0.02472396
O        0.15441476       1.72101276       0.04787687
C        1.62099574      -0.80756815      -0.26237990
N        2.07605667       0.18310157       0.17859569
H       -1.95530439       0.23096275       0.33057672
7
Frame=9 idx=000130 GeodesicLength=1.21247658073776 rxn_smarts="[O:1]=[C:2]([C:3](=[O:4])[C:5]#[N:6])[H:7]>>[O:1]=[C:2]([C:3](=[O:4])[N+:6]#[C-:5])[H:7]"
O       -1.11528918      -1.44857908      -0.40677303
C       -1.04824212      -0.34218348       0.05329752
C        0.28841679       0.49958372      -0.05275089
O        0.13938135       1.67560495       0.07216093
C        1.60752400      -0.83678662      -0.08052678
N        2.08696879       0.21948779       0.03636961
H       -1.95875964       0.23287272       0.37822265
7
Frame=10 idx=000130 GeodesicLength=1.3306918072798433 rxn_smarts="[O:1]=[C:2]([C:3](=[O:4])[C:5]#[N:6])[H:7]>>[O:1]=[C:2]([C:3](=[O:4])[N+:6]#[C-:5])[H:7]"
O       -1.10693319      -1.46097572      -0.41463457
C       -1.04040330      -0.32996968       0.01822280
C        0.27654701       0.48474190       0.00173156
O        0.12172393       1.66245837       0.13464562
C        1.61800560      -0.83427143       0.03589800
N        2.07961481       0.21775486      -0.11960999
H       -1.94855486       0.26026170       0.34374658
7
Frame=11 idx=000130 GeodesicLength=1.4690253959925097 rxn_smarts="[O:1]=[C:2]([C:3](=[O:4])[C:5]#[N:6])[H:7]>>[O:1]=[C:2]([C:3](=[O:4])[N+:6]#[C-:5])[H:7]"
O       -1.11343667      -1.50039033      -0.30192457
C       -1.04924426      -0.32873775      -0.01267559
C        0.27890070       0.48798039       0.08485679
O        0.14942331       1.66768131       0.32162505
C        1.65708745      -0.79695347       0.11531166
N        2.04177872       0.19182503      -0.34685480
H       -1.96450925       0.27859482       0.13966146
7
Frame=12 idx=000130 GeodesicLength=1.5609336389251198 rxn_smarts="[O:1]=[C:2]([C:3](=[O:4])[C:5]#[N:6])[H:7]>>[O:1]=[C:2]([C:3](=[O:4])[N+:6]#[C-:5])[H:7]"
O       -1.07782266      -1.48387137      -0.33713295
C       -1.04008098      -0.31707635      -0.03581454
C        0.27117100       0.48630227       0.12339027
O        0.14437300       1.66371745       0.34774296
C        1.68304656      -0.75830451       0.21830767
N        1.97310435       0.12890489      -0.45876975
H       -1.95379126       0.28032762       0.14227635
7
Frame=13 idx=000130 GeodesicLength=1.6519647951847838 rxn_smarts="[O:1]=[C:2]([C:3](=[O:4])[C:5]#[N:6])[H:7]>>[O:1]=[C:2]([C:3](=[O:4])[N+:6]#[C-:5])[H:7]"
O       -1.08216231      -1.47699408      -0.36142425
C       -1.04743222      -0.31521655      -0.05521694
C        0.26607621       0.49134106       0.12587600
O        0.15133988       1.65531505       0.37935199
C        1.72280577      -0.70519092       0.29414270
N        1.94865901       0.07506388      -0.53160379
H       -1.95928635       0.27568157       0.14887429
7
Frame=14 idx=000130 GeodesicLength=1.7330624585365721 rxn_smarts="[O:1]=[C:2]([C:3](=[O:4])[C:5]#[N:6])[H:7]>>[O:1]=[C:2]([C:3](=[O:4])[N+:6]#[C-:5])[H:7]"
O       -1.04626914      -1.47875439      -0.34191987
C       -1.03688066      -0.31270239      -0.04288575
C        0.26391732       0.49491808       0.15387744
O        0.15226125       1.65629172       0.44498949
C        1.74671902      -0.66712002       0.31866952
N        1.87616609       0.01666962      -0.60502233
H       -1.95591387       0.29069737       0.07229150
7
Frame=15 idx=000130 GeodesicLength=1.8530547678763583 rxn_smarts="[O:1]=[C:2]([C:3](=[O:4])[C:5]#[N:6])[H:7]>>[O:1]=[C:2]([C:3](=[O:4])[N+:6]#[C-:5])[H:7]"
O       -1.04900665      -1.45620257      -0.38608327
C       -1.04878820      -0.30234643      -0.08791501
C        0.25705233       0.50574760       0.12957162
O        0.14938114       1.65459879       0.44925058
C        1.78672114      -0.61677644       0.38615705
N        1.87199300      -0.05310539      -0.63367504
H       -1.96735278       0.26808445       0.14269405
7
Frame=16 idx=000130 GeodesicLength=1.9677678126279285 rxn_smarts="[O:1]=[C:2]([C:3](=[O:4])[C:5]#[N:6])[H:7]>>[O:1]=[C:2]([C:3](=[O:4])[N+:6]#[C-:5])[H:7]"
O       -1.02360918      -1.45855252      -0.37188352
C       -1.03539790      -0.30759544      -0.06587252
C        0.25635641       0.50707191       0.14666135
O        0.15948568       1.64398650       0.50884366
C        1.80575197      -0.55662231       0.38920941
N        1.79546272      -0.11279546      -0.67489701
H       -1.95804972       0.28450732       0.06793863
