14
Frame=0 idx=007890 GeodesicLength=0.0 rxn_smarts="[C:1](/[C:2](=[N:3]\[O:4][H:11])[C@@:5]1([H:12])[C:6]([H:13])([H:14])[O:7]1)([H:8])([H:9])[H:10]>>[C:1](/[C:2]([N:3]=[O:4])=[C:5](/[C:6]([O:7][H:11])([H:13])[H:14])[H:12])([H:8])([H:9])[H:10]"
C       -1.44687550      -1.07223451      -0.48205725
C       -0.59720003       0.16725755      -0.60316884
N       -0.84775828       1.28465014       0.11321932
O       -1.09206516       0.91341702       1.35034189
C        0.78193424       0.02925177      -0.73966279
C        1.69539675       0.83322500       0.11112161
O        1.23275310      -0.00346423       1.13870787
H       -2.48513127      -0.80378371      -0.29271429
H       -1.39544479      -1.61696250      -1.42714415
H       -1.10872246      -1.74116893       0.31179046
H       -0.12795058       0.34784584       1.47689467
H        1.17693307      -0.91907344      -1.08506819
H        2.75551015       0.68877426      -0.09631661
H        1.45862076       1.89226577       0.22405625
14
Frame=1 idx=007890 GeodesicLength=0.10063039775947807 rxn_smarts="[C:1](/[C:2](=[N:3]\[O:4][H:11])[C@@:5]1([H:12])[C:6]([H:13])([H:14])[O:7]1)([H:8])([H:9])[H:10]>>[C:1](/[C:2]([N:3]=[O:4])=[C:5](/[C:6]([O:7][H:11])([H:13])[H:14])[H:12])([H:8])([H:9])[H:10]"
C       -1.45184154      -1.07084799      -0.48667644
C       -0.59732010       0.16542334      -0.60083781
N       -0.85701679       1.27925084       0.11865268
O       -1.10578822       0.90798828       1.35349143
C        0.78380608       0.02534039      -0.73229801
C        1.70185211       0.83539569       0.10586606
O        1.25273571      -0.00743801       1.13554839
H       -2.49401649      -0.79779449      -0.32706969
H       -1.37530838      -1.62982955      -1.42143695
H       -1.14011238      -1.72931189       0.32640014
H       -0.11342975       0.35012790       1.50962697
H        1.17871877      -0.91784794      -1.09151514
H        2.75969668       0.69790775      -0.11644484
H        1.45802428       1.89163568       0.22669321
14
Frame=2 idx=007890 GeodesicLength=0.201193145817695 rxn_smarts="[C:1](/[C:2](=[N:3]\[O:4][H:11])[C@@:5]1([H:12])[C:6]([H:13])([H:14])[O:7]1)([H:8])([H:9])[H:10]>>[C:1](/[C:2]([N:3]=[O:4])=[C:5](/[C:6]([O:7][H:11])([H:13])[H:14])[H:12])([H:8])([H:9])[H:10]"
C       -1.45670607      -1.06953719      -0.49135438
C       -0.59749294       0.16358350      -0.59862943
N       -0.86648941       1.27371941       0.12399528
O       -1.11953811       0.90233166       1.35657328
C        0.78564843       0.02137656      -0.72481366
C        1.70822264       0.83742668       0.10066183
O        1.27263951      -0.01147575       1.13231548
H       -2.50200641      -0.79211440      -0.36170587
H       -1.35538704      -1.64283887      -1.41476050
H       -1.17201866      -1.71705936       0.34011782
H       -0.09835684       0.35321704       1.54296522
H        1.18046459      -0.91627839      -1.09829824
H        2.76352979       0.70686843      -0.13653912
H        1.45749052       1.89078068       0.22947228
14
Frame=3 idx=007890 GeodesicLength=0.3016688369170504 rxn_smarts="[C:1](/[C:2](=[N:3]\[O:4][H:11])[C@@:5]1([H:12])[C:6]([H:13])([H:14])[O:7]1)([H:8])([H:9])[H:10]>>[C:1](/[C:2]([N:3]=[O:4])=[C:5](/[C:6]([O:7][H:11])([H:13])[H:14])[H:12])([H:8])([H:9])[H:10]"
C       -1.46148000      -1.06830707      -0.49609814
C       -0.59771813       0.16172884      -0.59653792
N       -0.87618060       1.26804303       0.12924547
O       -1.13330568       0.89645143       1.35959193
C        0.78746110       0.01733700      -0.71718971
C        1.71450503       0.83932195       0.09550618
O        1.29248049      -0.01555577       1.12902665
H       -2.50910776      -0.78674459      -0.39660158
H       -1.33570979      -1.65594775      -1.40714545
H       -1.20442657      -1.70444370       0.35289557
H       -0.08269754       0.35711455       1.57692603
H        1.18216114      -0.91436982      -1.10538590
H        2.76700449       0.71566550      -0.15660401
H        1.45701385       1.88970640       0.23237087
14
Frame=4 idx=007890 GeodesicLength=0.4020933468457643 rxn_smarts="[C:1](/[C:2](=[N:3]\[O:4][H:11])[C@@:5]1([H:12])[C:6]([H:13])([H:14])[O:7]1)([H:8])([H:9])[H:10]>>[C:1](/[C:2]([N:3]=[O:4])=[C:5](/[C:6]([O:7][H:11])([H:13])[H:14])[H:12])([H:8])([H:9])[H:10]"
C       -1.46617561      -1.06715713      -0.50091799
C       -0.59799434       0.15985410      -0.59455320
N       -0.88608954       1.26221230       0.13440417
O       -1.14709832       0.89035567       1.36254875
C        0.78924378       0.01320248      -0.70940636
C        1.72069692       0.84108525       0.09039607
O        1.31228106      -0.01966266       1.12569552
H       -2.51532159      -0.78168799      -0.43175365
H       -1.31630128      -1.66913862      -1.39860500
H       -1.23733964      -1.69148512       0.36468959
H       -0.06640022       0.36181292       1.61153052
H        1.18379734      -0.91211963      -1.11275463
H        2.77011216       0.72431062      -0.17665124
H        1.45658926       1.88841779       0.23537745
14
Frame=5 idx=007890 GeodesicLength=0.5024153594549954 rxn_smarts="[C:1](/[C:2](=[N:3]\[O:4][H:11])[C@@:5]1([H:12])[C:6]([H:13])([H:14])[O:7]1)([H:8])([H:9])[H:10]>>[C:1](/[C:2]([N:3]=[O:4])=[C:5](/[C:6]([O:7][H:11])([H:13])[H:14])[H:12])([H:8])([H:9])[H:10]"
C       -1.47080324      -1.06609022      -0.50582363
C       -0.59831832       0.15795119      -0.59266772
N       -0.89621583       1.25621518       0.13947695
O       -1.16091993       0.88404537       1.36545473
C        0.79099769       0.00894931      -0.70144185
C        1.72679585       0.84272157       0.08532748
O        1.33205872      -0.02377551       1.12233846
H       -2.52065317      -0.77694626      -0.46714827
H       -1.29719585      -1.68237889      -1.38916106
H       -1.27074803      -1.67821312       0.37544512
H       -0.04942249       0.36731922       1.64678729
H        1.18536254      -0.90953204      -1.12037093
H        2.77285037       0.73281219      -0.19668777
H        1.45621169       1.88692202       0.23847121
14
Frame=6 idx=007890 GeodesicLength=0.6027259035009099 rxn_smarts="[C:1](/[C:2](=[N:3]\[O:4][H:11])[C@@:5]1([H:12])[C:6]([H:13])([H:14])[O:7]1)([H:8])([H:9])[H:10]>>[C:1](/[C:2]([N:3]=[O:4])=[C:5](/[C:6]([O:7][H:11])([H:13])[H:14])[H:12])([H:8])([H:9])[H:10]"
C       -1.47537225      -1.06510924      -0.51081716
C       -0.59868793       0.15600990      -0.59086413
N       -0.90655314       1.25004689       0.14446197
O       -1.17480424       0.87753784       1.36830001
C        0.79272287       0.00455764      -0.69327614
C        1.73279873       0.84423400       0.08029462
O        1.35184675      -0.02788699       1.11896236
H       -2.52509729      -0.77251659      -0.50279729
H       -1.27841113      -1.69565051      -1.37881430
H       -1.30466628      -1.66464327       0.38511813
H       -0.03169741       0.37361285       1.68273269
H        1.18684396      -0.90660279      -1.12821324
H        2.77520156       0.74118849      -0.21673580
H        1.45587580       1.88522177       0.24164829
14
Frame=7 idx=007890 GeodesicLength=0.7030666249487535 rxn_smarts="[C:1](/[C:2](=[N:3]\[O:4][H:11])[C@@:5]1([H:12])[C:6]([H:13])([H:14])[O:7]1)([H:8])([H:9])[H:10]>>[C:1](/[C:2]([N:3]=[O:4])=[C:5](/[C:6]([O:7][H:11])([H:13])[H:14])[H:12])([H:8])([H:9])[H:10]"
C       -1.47989211      -1.06421233      -0.51590760
C       -0.59909753       0.15402237      -0.58912671
N       -0.91709587       1.24370453       0.14935549
O       -1.18879431       0.87084998       1.37107544
C        0.79442106       0.00000803      -0.68489055
C        1.73870281       0.84562533       0.07529329
O        1.37167193      -0.03199162       1.11557097
H       -2.52864993      -0.76841029      -0.53869533
H       -1.25997831      -1.70893093      -1.36756665
H       -1.33909605      -1.65079330       0.39366093
H       -0.01315303       0.38068388       1.71938914
H        1.18822776      -0.90332704      -1.13625989
H        2.77715683       0.74945211      -0.23680637
H        1.45557674       1.88331928       0.24490785
14
Frame=8 idx=007890 GeodesicLength=0.8034842705803298 rxn_smarts="[C:1](/[C:2](=[N:3]\[O:4][H:11])[C@@:5]1([H:12])[C:6]([H:13])([H:14])[O:7]1)([H:8])([H:9])[H:10]>>[C:1](/[C:2]([N:3]=[O:4])=[C:5](/[C:6]([O:7][H:11])([H:13])[H:14])[H:12])([H:8])([H:9])[H:10]"
C       -1.48437147      -1.06339783      -0.52109846
C       -0.59954508       0.15198327      -0.58743915
N       -0.92783625       1.23718904       0.15415576
O       -1.20294124       0.86399660       1.37376714
C        0.79609102      -0.00471468      -0.67626862
C        1.74450355       0.84689550       0.07032018
O        1.39156575      -0.03609287       1.11216229
H       -2.53129851      -0.76463464      -0.57485705
H       -1.24191897      -1.72221960      -1.35540078
H       -1.37404987      -1.63667092       0.40101935
H        0.00629463       0.38852832       1.75679662
H        1.18949490      -0.89969162      -1.14449842
H        2.77870027       0.75761650      -0.25691814
H        1.45531126       1.88121295       0.24825927
14
Frame=9 idx=007890 GeodesicLength=0.9038474904778568 rxn_smarts="[C:1](/[C:2](=[N:3]\[O:4][H:11])[C@@:5]1([H:12])[C:6]([H:13])([H:14])[O:7]1)([H:8])([H:9])[H:10]>>[C:1](/[C:2]([N:3]=[O:4])=[C:5](/[C:6]([O:7][H:11])([H:13])[H:14])[H:12])([H:8])([H:9])[H:10]"
C       -1.48883262      -1.06268126      -0.52643974
C       -0.60002302       0.14986124      -0.58577990
N       -0.93877481       1.23046894       0.15888539
O       -1.21728456       0.85694635       1.37639761
C        0.79773254      -0.00965558      -0.66736519
C        1.75019293       0.84804919       0.06537082
O        1.41154510      -0.04015226       1.10877484
H       -2.53307541      -0.76120149      -0.61124266
H       -1.22431723      -1.73544402      -1.34243004
H       -1.40947279      -1.62229075       0.40713183
H        0.02677072       0.39722862       1.79494781
H        1.19063800      -0.89573117      -1.15284366
H        2.77983579       0.76568979      -0.27706397
H        1.45506537       1.87891240       0.25165685
14
Frame=10 idx=007890 GeodesicLength=1.0043226322380823 rxn_smarts="[C:1](/[C:2](=[N:3]\[O:4][H:11])[C@@:5]1([H:12])[C:6]([H:13])([H:14])[O:7]1)([H:8])([H:9])[H:10]>>[C:1](/[C:2]([N:3]=[O:4])=[C:5](/[C:6]([O:7][H:11])([H:13])[H:14])[H:12])([H:8])([H:9])[H:10]"
C       -1.49326719      -1.06205197      -0.53189255
C       -0.60053513       0.14766898      -0.58413126
N       -0.94990038       1.22357543       0.16351468
O       -1.23191151       0.84975642       1.37890483
C        0.79934170      -0.01480083      -0.65819397
C        1.75576442       0.84907742       0.06044403
O        1.43164994      -0.04422902       1.10536235
H       -2.53392253      -0.75810703      -0.64792119
H       -1.20712256      -1.74865584      -1.32853329
H       -1.44543191      -1.60765161       0.41199015
H        0.04834782       0.40671384       1.83392861
H        1.19162340      -0.89137843      -1.16135636
H        2.78052303       0.77368373      -0.29728831
H        1.45484090       1.87639888       0.25517228
14
Frame=11 idx=007890 GeodesicLength=1.104878480863468 rxn_smarts="[C:1](/[C:2](=[N:3]\[O:4][H:11])[C@@:5]1([H:12])[C:6]([H:13])([H:14])[O:7]1)([H:8])([H:9])[H:10]>>[C:1](/[C:2]([N:3]=[O:4])=[C:5](/[C:6]([O:7][H:11])([H:13])[H:14])[H:12])([H:8])([H:9])[H:10]"
C       -1.49767974      -1.06151533      -0.53746556
C       -0.60107888       0.14539367      -0.58247751
N       -0.96121249       1.21650920       0.16803382
O       -1.24689323       0.84243744       1.38126531
C        0.80091745      -0.02016674      -0.64874389
C        1.76120855       0.84997574       0.05553991
O        1.45190336      -0.04834011       1.10191322
H       -2.53383225      -0.75534717      -0.68490512
H       -1.19035722      -1.76183508      -1.31371223
H       -1.48191251      -1.59276568       0.41556741
H        0.07113700       0.41700063       1.87378415
H        1.19242983      -0.88662048      -1.17001705
H        2.78074015       0.78160993      -0.31760466
H        1.45462998       1.87366398       0.25882220
14
Frame=12 idx=007890 GeodesicLength=1.20552265081245 rxn_smarts="[C:1](/[C:2](=[N:3]\[O:4][H:11])[C@@:5]1([H:12])[C:6]([H:13])([H:14])[O:7]1)([H:8])([H:9])[H:10]>>[C:1](/[C:2]([N:3]=[O:4])=[C:5](/[C:6]([O:7][H:11])([H:13])[H:14])[H:12])([H:8])([H:9])[H:10]"
C       -1.50207803      -1.06107650      -0.54316679
C       -0.60165499       0.14302313      -0.58079573
N       -0.97270934       1.20927257       0.17243421
O       -1.26232200       0.83500185       1.38344428
C        0.80245531      -0.02576707      -0.63900311
C        1.76651256       0.85073779       0.05065881
O        1.47233449      -0.05251232       1.09841076
H       -2.53278099      -0.75292062      -0.72222538
H       -1.17402867      -1.77498214      -1.29795953
H       -1.51892334      -1.57762769       0.41784097
H        0.09528644       0.42810904       1.91457196
H        1.19302968      -0.88143485      -1.17881607
H        2.78045513       0.78948246      -0.33803080
H        1.45442376       1.87069436       0.26263642
14
Frame=13 idx=007890 GeodesicLength=1.306186812638116 rxn_smarts="[C:1](/[C:2](=[N:3]\[O:4][H:11])[C@@:5]1([H:12])[C:6]([H:13])([H:14])[O:7]1)([H:8])([H:9])[H:10]>>[C:1](/[C:2]([N:3]=[O:4])=[C:5](/[C:6]([O:7][H:11])([H:13])[H:14])[H:12])([H:8])([H:9])[H:10]"
C       -1.50646665      -1.06074354      -0.54899993
C       -0.60226176       0.14054411      -0.57907100
N       -0.98439205       1.20186833       0.17670321
O       -1.27828334       0.82745781       1.38540974
C        0.80395233      -0.03161783      -0.62896436
C        1.77166410       0.85135837       0.04579981
O        1.49296297      -0.05676497       1.09484003
H       -2.53075050      -0.75083727      -0.75988577
H       -1.15816853      -1.78806844      -1.28128565
H       -1.55644905      -1.56224511       0.41876089
H        0.12094042       0.44006973       1.95634931
H        1.19339424      -0.87581448      -1.18771706
H        2.77964558       0.79731437      -0.35857399
H        1.45421224       1.86747893       0.26663477
14
Frame=14 idx=007890 GeodesicLength=1.4068600479179936 rxn_smarts="[C:1](/[C:2](=[N:3]\[O:4][H:11])[C@@:5]1([H:12])[C:6]([H:13])([H:14])[O:7]1)([H:8])([H:9])[H:10]>>[C:1](/[C:2]([N:3]=[O:4])=[C:5](/[C:6]([O:7][H:11])([H:13])[H:14])[H:12])([H:8])([H:9])[H:10]"
C       -1.51085178      -1.06051943      -0.55498497
C       -0.60290134       0.13794480      -0.57727801
N       -0.99626059       1.19430058       0.18083342
O       -1.29489229       0.81981097       1.38711854
C        0.80540338      -0.03772824      -0.61861754
C        1.77664689       0.85183140       0.04096804
O        1.51381980      -0.06113161       1.09117841
H       -2.52770085      -0.74910608      -0.79792598
H       -1.14280397      -1.80110246      -1.26365619
H       -1.59451087      -1.54661009       0.41827012
H        0.14830407       0.45292360       1.99918367
H        1.19349473      -0.86974003      -1.19669789
H        2.77826824       0.80512535      -0.37925136
H        1.45398458       1.86400124       0.27085974
14
Frame=15 idx=007890 GeodesicLength=1.507483118974396 rxn_smarts="[C:1](/[C:2](=[N:3]\[O:4][H:11])[C@@:5]1([H:12])[C:6]([H:13])([H:14])[O:7]1)([H:8])([H:9])[H:10]>>[C:1](/[C:2]([N:3]=[O:4])=[C:5](/[C:6]([O:7][H:11])([H:13])[H:14])[H:12])([H:8])([H:9])[H:10]"
C       -1.51523872      -1.06040742      -0.56113946
C       -0.60357444       0.13521442      -0.57540015
N       -1.00831948       1.18657624       0.18480866
O       -1.31226844       0.81206803       1.38852103
C        0.80680267      -0.04410790      -0.60795845
C        1.78144346       0.85215048       0.03616940
O        1.53492406      -0.06564208       1.08740262
H       -2.52360691      -0.74775369      -0.83634880
H       -1.12797584      -1.81405723      -1.24507399
H       -1.63309788      -1.53072812       0.41630010
H        0.17759425       0.46672129       2.04314461
H        1.19329959      -0.86321021      -1.20570852
H        2.77628911       0.81293084      -0.40006445
H        1.45372857       1.86024535       0.27534740
14
Frame=16 idx=007890 GeodesicLength=1.607963035809259 rxn_smarts="[C:1](/[C:2](=[N:3]\[O:4][H:11])[C@@:5]1([H:12])[C:6]([H:13])([H:14])[O:7]1)([H:8])([H:9])[H:10]>>[C:1](/[C:2]([N:3]=[O:4])=[C:5](/[C:6]([O:7][H:11])([H:13])[H:14])[H:12])([H:8])([H:9])[H:10]"
C       -1.51963648      -1.06041133      -0.56748391
C       -0.60428670       0.13234033      -0.57341166
N       -1.02057566       1.17869621       0.18862681
O       -1.33053025       0.80421990       1.38957569
C        0.80814137      -0.05076422      -0.59698178
C        1.78603249       0.85231147       0.03140881
O        1.55630076      -0.07032866       1.08348706
H       -2.51841864      -0.74679630      -0.87519878
H       -1.11372335      -1.82692726      -1.22551105
H       -1.67223051      -1.51459459       0.41276393
H        0.20905838       0.48153169       2.08830730
H        1.19277493      -0.85622462      -1.21469791
H        2.77366519       0.82075391      -0.42102582
H        1.45342848       1.85619346       0.28014131
