12
Frame=0 idx=002112 GeodesicLength=0.0 rxn_smarts="[O:1]=[C:2]1[N:3]([H:7])[C:4]([H:8])([H:9])[C:5]([H:10])([H:11])[N:6]1[H:12]>>[C:5](=[N:6][H:12])([H:10])[H:11].[N:3](=[C:4]([H:8])[H:9])[H:7].[O+:1]#[C-:2]"
O        2.46525521      -0.70242630      -1.18621077
C        1.59334759      -0.42440102      -0.50786367
N        0.74599708       1.38875147      -0.30390924
C       -0.44477270       1.27665126       0.22959733
C       -0.95261345      -0.90505799       0.29528321
N        0.17190592      -1.55431829       0.10856651
H        0.67613585       1.47597716      -1.31728663
H       -1.34977240       1.42509876      -0.35277571
H       -0.52340705       1.41077298       1.30413763
H       -1.37882583      -0.78031280       1.28608180
H       -1.63146969      -0.84336065      -0.54852013
H        0.62821943      -1.76737454       0.99289963
12
Frame=1 idx=002112 GeodesicLength=0.06674341698057529 rxn_smarts="[O:1]=[C:2]1[N:3]([H:7])[C:4]([H:8])([H:9])[C:5]([H:10])([H:11])[N:6]1[H:12]>>[C:5](=[N:6][H:12])([H:10])[H:11].[N:3](=[C:4]([H:8])[H:9])[H:7].[O+:1]#[C-:2]"
O        2.44979408      -0.72901003      -1.24189139
C        1.58497739      -0.43799516      -0.55780204
N        0.75696750       1.36680547      -0.26749536
C       -0.45271452       1.27714622       0.23164691
C       -0.95786534      -0.91724552       0.30076836
N        0.18202017      -1.54888850       0.12936611
H        0.72587301       1.52279962      -1.27394931
H       -1.33524996       1.44469137      -0.38040050
H       -0.56525663       1.43510926       1.30018537
H       -1.39819146      -0.80107965       1.28712615
H       -1.63601031      -0.88888493      -0.54588391
H        0.64565606      -1.72344816       1.01832960
12
Frame=2 idx=002112 GeodesicLength=0.132146892382782 rxn_smarts="[O:1]=[C:2]1[N:3]([H:7])[C:4]([H:8])([H:9])[C:5]([H:10])([H:11])[N:6]1[H:12]>>[C:5](=[N:6][H:12])([H:10])[H:11].[N:3](=[C:4]([H:8])[H:9])[H:7].[O+:1]#[C-:2]"
O        2.43625016      -0.75245085      -1.29085356
C        1.57511709      -0.44939487      -0.60519261
N        0.76588392       1.34415922      -0.23280881
C       -0.46149653       1.27871434       0.23142758
C       -0.96323834      -0.92900875       0.30739725
N        0.19080245      -1.54247993       0.14472707
H        0.77745746       1.56565122      -1.22677184
H       -1.31969489       1.46507876      -0.41017806
H       -0.60677817       1.46179940       1.29227191
H       -1.41144183      -0.82142264       1.29188660
H       -1.64503993      -0.93583797      -0.53728352
H        0.66217861      -1.68480793       1.03537799
12
Frame=3 idx=002112 GeodesicLength=0.196277860112919 rxn_smarts="[O:1]=[C:2]1[N:3]([H:7])[C:4]([H:8])([H:9])[C:5]([H:10])([H:11])[N:6]1[H:12]>>[C:5](=[N:6][H:12])([H:10])[H:11].[N:3](=[C:4]([H:8])[H:9])[H:7].[O+:1]#[C-:2]"
O        2.42533759      -0.77286299      -1.33297576
C        1.56397965      -0.45853154      -0.65050344
N        0.77242431       1.32114631      -0.20046849
C       -0.47089621       1.28132932       0.22930054
C       -0.96880327      -0.94027029       0.31469286
N        0.19828838      -1.53529812       0.15522657
H        0.82923613       1.60387991      -1.17660741
H       -1.30327487       1.48683267      -0.44082137
H       -0.64674200       1.49004101       1.28099093
H       -1.41975138      -0.84132024       1.29950930
H       -1.65750989      -0.98389786      -0.52375382
H        0.67771157      -1.65104818       1.04541010
12
Frame=4 idx=002112 GeodesicLength=0.2595108610396705 rxn_smarts="[O:1]=[C:2]1[N:3]([H:7])[C:4]([H:8])([H:9])[C:5]([H:10])([H:11])[N:6]1[H:12]>>[C:5](=[N:6][H:12])([H:10])[H:11].[N:3](=[C:4]([H:8])[H:9])[H:7].[O+:1]#[C-:2]"
O        2.41785519      -0.79056246      -1.36802655
C        1.55166740      -0.46550469      -0.69445136
N        0.77649495       1.29799738      -0.17089691
C       -0.48078669       1.28493316       0.22561013
C       -0.97468151      -0.95100334       0.32229928
N        0.20449164      -1.52750336       0.16132008
H        0.87998359       1.63720941      -1.12433726
H       -1.28624563       1.51045381      -0.47134244
H       -0.68434358       1.51928051       1.26706780
H       -1.42407413      -0.86077507       1.30935044
H       -1.67268592      -1.03290183      -0.50605354
H        0.69232470      -1.62162352       1.04946034
12
Frame=5 idx=002112 GeodesicLength=0.3222315623746219 rxn_smarts="[O:1]=[C:2]1[N:3]([H:7])[C:4]([H:8])([H:9])[C:5]([H:10])([H:11])[N:6]1[H:12]>>[C:5](=[N:6][H:12])([H:10])[H:11].[N:3](=[C:4]([H:8])[H:9])[H:7].[O+:1]#[C-:2]"
O        2.41433030      -0.80580865      -1.39565990
C        1.53812802      -0.47043235      -0.73789059
N        0.77821891       1.27479568      -0.14425783
C       -0.49112496       1.28942431       0.22057162
C       -0.98098783      -0.96123130       0.33003513
N        0.20934280      -1.51920815       0.16326896
H        0.92910989       1.66569275      -1.07056222
H       -1.26878528       1.53625683      -0.50126416
H       -0.71929954       1.54925349       1.25108803
H       -1.42495239      -0.87980368       1.32102753
H       -1.69012940      -1.08285477      -0.48444833
H        0.70614948      -1.59608416       1.04809176
12
Frame=6 idx=002112 GeodesicLength=0.3844636186530684 rxn_smarts="[O:1]=[C:2]1[N:3]([H:7])[C:4]([H:8])([H:9])[C:5]([H:10])([H:11])[N:6]1[H:12]>>[C:5](=[N:6][H:12])([H:10])[H:11].[N:3](=[C:4]([H:8])[H:9])[H:7].[O+:1]#[C-:2]"
O        2.41407720      -0.81916893      -1.41644059
C        1.52375248      -0.47350773      -0.78074249
N        0.77761141       1.25181831      -0.12093216
C       -0.50173902       1.29474633       0.21462810
C       -0.98766547      -0.97105110       0.33738310
N        0.21309891      -1.51040168       0.16200388
H        0.97563935       1.68910470      -1.01646641
H       -1.25112814       1.56480808      -0.52942662
H       -0.75075775       1.57929075       1.23402093
H       -1.42353643      -0.89864651       1.33341557
H       -1.70841389      -1.13380893      -0.46018968
H        0.71906135      -1.57318328       1.04274636
12
Frame=7 idx=002112 GeodesicLength=0.4461590823126461 rxn_smarts="[O:1]=[C:2]1[N:3]([H:7])[C:4]([H:8])([H:9])[C:5]([H:10])([H:11])[N:6]1[H:12]>>[C:5](=[N:6][H:12])([H:10])[H:11].[N:3](=[C:4]([H:8])[H:9])[H:7].[O+:1]#[C-:2]"
O        2.41424478      -0.83108563      -1.43369543
C        1.50970312      -0.47485736      -0.82153053
N        0.77498148       1.22929194      -0.10040138
C       -0.51253792       1.30078180       0.20791727
C       -0.99446717      -0.98062402       0.34397212
N        0.21631137      -1.50102909       0.15892091
H        1.01965634       1.70768964      -0.96202603
H       -1.23290959       1.59625372      -0.55580724
H       -0.77903955       1.60908463       1.21619392
H       -1.42092122      -0.91745290       1.34547324
H       -1.72587886      -1.18618417      -0.43446083
H        0.73085722      -1.55186855       1.03544397
12
Frame=8 idx=002112 GeodesicLength=0.5074056494901243 rxn_smarts="[O:1]=[C:2]1[N:3]([H:7])[C:4]([H:8])([H:9])[C:5]([H:10])([H:11])[N:6]1[H:12]>>[C:5](=[N:6][H:12])([H:10])[H:11].[N:3](=[C:4]([H:8])[H:9])[H:7].[O+:1]#[C-:2]"
O        2.41247186      -0.84191579      -1.45100285
C        1.49723520      -0.47464164      -0.85861974
N        0.77063906       1.20747575      -0.08207853
C       -0.52352241       1.30745361       0.20049197
C       -1.00122969      -0.99010491       0.34953757
N        0.21945119      -1.49106468       0.15527602
H        1.06143522       1.72175594      -0.90715761
H       -1.21377879       1.63064151      -0.58053954
H       -0.80468017       1.63851446       1.19780080
H       -1.41807367      -0.93630411       1.35643422
H       -1.74119721      -1.24039123      -0.40818786
H        0.74124940      -1.53141891       1.02804557
12
Frame=9 idx=002112 GeodesicLength=0.568338751320461 rxn_smarts="[O:1]=[C:2]1[N:3]([H:7])[C:4]([H:8])([H:9])[C:5]([H:10])([H:11])[N:6]1[H:12]>>[C:5](=[N:6][H:12])([H:10])[H:11].[N:3](=[C:4]([H:8])[H:9])[H:7].[O+:1]#[C-:2]"
O        2.40860247      -0.85193922      -1.46935071
C        1.48659968      -0.47312918      -0.89184325
N        0.76473977       1.18644538      -0.06582067
C       -0.53473256       1.31471349       0.19237312
C       -1.00800217      -0.99957967       0.35399513
N        0.22256889      -1.48054976       0.15152415
H        1.10085115       1.73163872      -0.85211567
H       -1.19361099       1.66813630      -0.60350691
H       -0.82790167       1.66748434       1.17906400
H       -1.41537891      -0.95519888       1.36606583
H       -1.75388703      -1.29653710      -0.38158376
H        0.75015139      -1.51148441       1.02119875
12
Frame=10 idx=002112 GeodesicLength=0.6290622679192645 rxn_smarts="[O:1]=[C:2]1[N:3]([H:7])[C:4]([H:8])([H:9])[C:5]([H:10])([H:11])[N:6]1[H:12]>>[C:5](=[N:6][H:12])([H:10])[H:11].[N:3](=[C:4]([H:8])[H:9])[H:7].[O+:1]#[C-:2]"
O        2.40289492      -0.86129894      -1.48905007
C        1.47759843      -0.47051559      -0.92163851
N        0.75734750       1.16624890      -0.05136435
C       -0.54627290       1.32254630       0.18342438
C       -1.01488575      -1.00914269       0.35743413
N        0.22555898      -1.46958434       0.14773455
H        1.13811569       1.73781091      -0.79666699
H       -1.17211854       1.70858017      -0.62488884
H       -0.84914986       1.69606664       1.15988052
H       -1.41280912      -0.97406584       1.37451262
H       -1.76386601      -1.35462414      -0.35434524
H        0.75758665      -1.49202137       1.01496781
12
Frame=11 idx=002112 GeodesicLength=0.6896775043592884 rxn_smarts="[O:1]=[C:2]1[N:3]([H:7])[C:4]([H:8])([H:9])[C:5]([H:10])([H:11])[N:6]1[H:12]>>[C:5](=[N:6][H:12])([H:10])[H:11].[N:3](=[C:4]([H:8])[H:9])[H:7].[O+:1]#[C-:2]"
O        2.39600677      -0.87000015      -1.50945367
C        1.46978012      -0.46695016      -0.94885614
N        0.74849007       1.14679646      -0.03859907
C       -0.55826501       1.33094639       0.17346195
C       -1.02200762      -1.01885232       0.35998039
N        0.22820118      -1.45825773       0.14364432
H        1.17335213       1.74058603      -0.74056773
H       -1.14910487       1.75185172      -0.64482985
H       -0.86879115       1.72431599       1.14013789
H       -1.41006153      -0.99275776       1.38205803
H       -1.77128598      -1.41451848      -0.32589737
H        0.76368589      -1.47315998       1.00892124
12
Frame=12 idx=002112 GeodesicLength=0.7500410047525283 rxn_smarts="[O:1]=[C:2]1[N:3]([H:7])[C:4]([H:8])([H:9])[C:5]([H:10])([H:11])[N:6]1[H:12]>>[C:5](=[N:6][H:12])([H:10])[H:11].[N:3](=[C:4]([H:8])[H:9])[H:7].[O+:1]#[C-:2]"
O        2.38821641      -0.87826442      -1.53019374
C        1.46288068      -0.46265429      -0.97390447
N        0.73814932       1.12811210      -0.02769993
C       -0.57065294       1.33990384       0.16250044
C       -1.02942412      -1.02879676       0.36159745
N        0.23049475      -1.44660016       0.13942423
H        1.20605560       1.74008076      -0.68424127
H       -1.12440738       1.79787256      -0.66288069
H       -0.88667830       1.75195073       1.12003470
H       -1.40735924      -1.01126979       1.38861326
H       -1.77579566      -1.47581748      -0.29648176
H        0.76852088      -1.45451709       1.00323178
12
Frame=13 idx=002112 GeodesicLength=0.8103201239193869 rxn_smarts="[O:1]=[C:2]1[N:3]([H:7])[C:4]([H:8])([H:9])[C:5]([H:10])([H:11])[N:6]1[H:12]>>[C:5](=[N:6][H:12])([H:10])[H:11].[N:3](=[C:4]([H:8])[H:9])[H:7].[O+:1]#[C-:2]"
O        2.37993392      -0.88613598      -1.55081667
C        1.45667125      -0.45774105      -0.99734389
N        0.72636695       1.11010859      -0.01865680
C       -0.58356041       1.34944604       0.15038428
C       -1.03720458      -1.03903876       0.36235965
N        0.23230841      -1.43465799       0.13488890
H        1.23635516       1.73642547      -0.62757082
H       -1.09800375       1.84646688      -0.67902249
H       -0.90312166       1.77895202       1.09958756
H       -1.40450606      -1.02944061       1.39434489
H       -1.77743172      -1.53824545      -0.26574759
H        0.77219250      -1.43613916       0.99759297
12
Frame=14 idx=002112 GeodesicLength=0.8704846630111325 rxn_smarts="[O:1]=[C:2]1[N:3]([H:7])[C:4]([H:8])([H:9])[C:5]([H:10])([H:11])[N:6]1[H:12]>>[C:5](=[N:6][H:12])([H:10])[H:11].[N:3](=[C:4]([H:8])[H:9])[H:7].[O+:1]#[C-:2]"
O        2.37128435      -0.89369599      -1.57116275
C        1.45099242      -0.45231207      -1.01948262
N        0.71314712       1.09277978      -0.01148674
C       -0.59700307       1.35959820       0.13699899
C       -1.04535625      -1.04964391       0.36231743
N        0.23361316      -1.42245868       0.13004550
H        1.26414583       1.72968306      -0.57054660
H       -1.06976571       1.89731067      -0.69309874
H       -0.91829749       1.80516678       1.07880357
H       -1.40148065      -1.04716312       1.39930841
H       -1.77605148      -1.60134066      -0.23366167
H        0.77477178      -1.41792408       0.99196520
12
Frame=15 idx=002112 GeodesicLength=0.9305338545363598 rxn_smarts="[O:1]=[C:2]1[N:3]([H:7])[C:4]([H:8])([H:9])[C:5]([H:10])([H:11])[N:6]1[H:12]>>[C:5](=[N:6][H:12])([H:10])[H:11].[N:3](=[C:4]([H:8])[H:9])[H:7].[O+:1]#[C-:2]"
O        2.36232726      -0.90108141      -1.59116570
C        1.44575719      -0.44648153      -1.04052346
N        0.69853238       1.07612262      -0.00623607
C       -0.61095893       1.37039076       0.12228003
C       -1.05385096      -1.06066568       0.36151889
N        0.23443528      -1.41000552       0.12497901
H        1.28924570       1.71986663      -0.51328238
H       -1.03965139       1.95002354      -0.70487973
H       -0.93234128       1.83041762       1.05776674
H       -1.39835073      -1.06435594       1.40352092
H       -1.77148964      -1.66455006      -0.20038750
H        0.77634511      -1.39968103       0.98640927
12
Frame=16 idx=002112 GeodesicLength=0.9904980499972899 rxn_smarts="[O:1]=[C:2]1[N:3]([H:7])[C:4]([H:8])([H:9])[C:5]([H:10])([H:11])[N:6]1[H:12]>>[C:5](=[N:6][H:12])([H:10])[H:11].[N:3](=[C:4]([H:8])[H:9])[H:7].[O+:1]#[C-:2]"
O        2.35308999      -0.90840767      -1.61080728
C        1.44091284      -0.44034300      -1.06063120
N        0.68258213       1.06013333      -0.00293625
C       -0.62539014       1.38186757       0.10615329
C       -1.06263335      -1.07213763       0.36002732
N        0.23480537      -1.39729696       0.11975573
H        1.31153807       1.70697627      -0.45581813
H       -1.00766903       2.00417088      -0.71417792
H       -0.94542579       1.85455580       1.03652980
H       -1.39515016      -1.08093111       1.40701638
H       -1.76365382      -1.72733185      -0.16607242
H        0.77699388      -1.38125564       0.98096069
