14
Frame=0 idx=005795 GeodesicLength=0.0 rxn_smarts="[C:1]([C@:2]12[C:3]([H:10])([H:11])[C:4]([H:12])([H:13])[C@@:5]1([H:14])[O:6]2)([H:7])([H:8])[H:9]>>[C:1]([C@:2]1([H:11])[C@:5]([C:4]([C:3][H:10])([H:12])[H:13])([H:14])[O:6]1)([H:7])([H:8])[H:9]"
C       -1.92079365       0.39774072       0.23435230
C       -0.60401001      -0.22627437      -0.07806315
C        1.18689254      -0.87790263       1.04764551
C        1.78746587      -0.24055141      -0.20033662
C        0.52522389       0.26822352      -0.85863082
O       -0.33395325      -0.75473170      -1.33780947
H       -1.86868270       0.93385149       1.18243353
H       -2.70306866      -0.35887924       0.30700870
H       -2.18736218       1.10328012      -0.55477594
H        1.06112575      -0.05971163       1.77910168
H       -0.20741241      -1.02459425       0.71739394
H        2.45110692       0.59644608       0.03077665
H        2.31946856      -0.94719146      -0.83951545
H        0.49399928       1.19029477      -1.42958080
14
Frame=1 idx=005795 GeodesicLength=0.058871470156685986 rxn_smarts="[C:1]([C@:2]12[C:3]([H:10])([H:11])[C:4]([H:12])([H:13])[C@@:5]1([H:14])[O:6]2)([H:7])([H:8])[H:9]>>[C:1]([C@:2]1([H:11])[C@:5]([C:4]([C:3][H:10])([H:12])[H:13])([H:14])[O:6]1)([H:7])([H:8])[H:9]"
C       -1.91832889       0.39563888       0.23402719
C       -0.60165813      -0.23124899      -0.07569492
C        1.17728429      -0.85756971       1.04891661
C        1.78924530      -0.24205426      -0.20253749
C        0.52541102       0.27201353      -0.85587371
O       -0.33204827      -0.74802774      -1.34241164
H       -1.86939318       0.92887685       1.18395143
H       -2.70257323      -0.35951941       0.30167790
H       -2.18263745       1.10404906      -0.55318584
H        1.06218627      -0.03670174       1.77826850
H       -0.21253340      -1.05694919       0.71648441
H        2.46086024       0.59106374       0.01876826
H        2.31077243      -0.96045887      -0.83697739
H        0.49341300       1.20088785      -1.41541330
14
Frame=2 idx=005795 GeodesicLength=0.11774828945759022 rxn_smarts="[C:1]([C@:2]12[C:3]([H:10])([H:11])[C:4]([H:12])([H:13])[C@@:5]1([H:14])[O:6]2)([H:7])([H:8])[H:9]>>[C:1]([C@:2]1([H:11])[C@:5]([C:4]([C:3][H:10])([H:12])[H:13])([H:14])[O:6]1)([H:7])([H:8])[H:9]"
C       -1.91591232       0.39357843       0.23366882
C       -0.59935051      -0.23607778      -0.07345761
C        1.16722508      -0.83762307       1.04968648
C        1.79084356      -0.24357799      -0.20458584
C        0.52557679       0.27582211      -0.85330765
O       -0.33020630      -0.74135957      -1.34692329
H       -1.87005634       0.92428470       1.18521899
H       -2.70191536      -0.36025807       0.29676662
H       -2.17821105       1.10454917      -0.55180513
H        1.06372032      -0.01446554       1.77736487
H       -0.21679610      -1.08837856       0.71564804
H        2.47015386       0.58556506       0.00732849
H        2.30207632      -0.97335984      -0.83416119
H        0.49285205       1.21130096      -1.40144161
14
Frame=3 idx=005795 GeodesicLength=0.17662921307408663 rxn_smarts="[C:1]([C@:2]12[C:3]([H:10])([H:11])[C:4]([H:12])([H:13])[C@@:5]1([H:14])[O:6]2)([H:7])([H:8])[H:9]>>[C:1]([C@:2]1([H:11])[C@:5]([C:4]([C:3][H:10])([H:12])[H:13])([H:14])[O:6]1)([H:7])([H:8])[H:9]"
C       -1.91355626       0.39157775       0.23326605
C       -0.59709676      -0.24074534      -0.07134217
C        1.15679879      -0.81808280       1.04997554
C        1.79226788      -0.24511075      -0.20648906
C        0.52571508       0.27964548      -0.85091962
O       -0.32842454      -0.73474739      -1.35132733
H       -1.87069527       0.92008576       1.18623447
H       -2.70112060      -0.36107522       0.29224181
H       -2.17407522       1.10480740      -0.55065001
H        1.06571280       0.00694194       1.77640147
H       -0.22022965      -1.11893377       0.71496130
H        2.47899856       0.57998337      -0.00356073
H        2.29339618      -0.98586768      -0.83111331
H        0.49230901       1.22152125      -1.38767842
14
Frame=4 idx=005795 GeodesicLength=0.2355131663888686 rxn_smarts="[C:1]([C@:2]12[C:3]([H:10])([H:11])[C:4]([H:12])([H:13])[C@@:5]1([H:14])[O:6]2)([H:7])([H:8])[H:9]>>[C:1]([C@:2]1([H:11])[C@:5]([C:4]([C:3][H:10])([H:12])[H:13])([H:14])[O:6]1)([H:7])([H:8])[H:9]"
C       -1.91126980       0.38965284       0.23281019
C       -0.59490413      -0.24523947      -0.06933995
C        1.14607919      -0.79896216       1.04980511
C        1.79352613      -0.24664114      -0.20825541
C        0.52582104       0.28348077      -0.84869827
O       -0.32669991      -0.72820803      -1.35561119
H       -1.87132810       0.91628775       1.18699812
H       -2.70021040      -0.36195244       0.28807432
H       -2.17022083       1.10484843      -0.54973259
H        1.06813784       0.02747465       1.77538946
H       -0.22286154      -1.14866807       0.71449177
H        2.48740706       0.57434971      -0.01391994
H        2.28474637      -0.99796260      -0.82787665
H        0.49177707       1.23153977      -1.37413495
14
Frame=5 idx=005795 GeodesicLength=0.29439918634461903 rxn_smarts="[C:1]([C@:2]12[C:3]([H:10])([H:11])[C:4]([H:12])([H:13])[C@@:5]1([H:14])[O:6]2)([H:7])([H:8])[H:9]>>[C:1]([C@:2]1([H:11])[C@:5]([C:4]([C:3][H:10])([H:12])[H:13])([H:14])[O:6]1)([H:7])([H:8])[H:9]"
C       -1.90905937       0.38781721       0.23229469
C       -0.59277815      -0.24955080      -0.06744322
C        1.13513013      -0.78026792       1.04919732
C        1.79462634      -0.24815860      -0.20989359
C        0.52589096       0.28732606      -0.84663380
O       -0.32502928      -0.72175485      -1.35976676
H       -1.87196861       0.91289479       1.18751218
H       -2.69920287      -0.36287310       0.28423810
H       -2.16663765       1.10469509      -0.54906083
H        1.07096226       0.04709633       1.77434007
H       -0.22471705      -1.17763582       0.71429800
H        2.49539367       0.56869198      -0.02377199
H        2.27613920      -1.00963164      -0.82448956
H        0.49125041       1.24135129      -1.36082060
14
Frame=6 idx=005795 GeodesicLength=0.35328638264048173 rxn_smarts="[C:1]([C@:2]12[C:3]([H:10])([H:11])[C:4]([H:12])([H:13])[C@@:5]1([H:14])[O:6]2)([H:7])([H:8])[H:9]>>[C:1]([C@:2]1([H:11])[C@:5]([C:4]([C:3][H:10])([H:12])[H:13])([H:14])[O:6]1)([H:7])([H:8])[H:9]"
C       -1.90692978       0.38608200       0.23171438
C       -0.59072288      -0.25367203      -0.06564485
C        1.12400659      -0.76200141       1.04817462
C        1.79557654      -0.24965406      -0.21141284
C        0.52592208       0.29118045      -0.84471742
O       -0.32340958      -0.71539769      -1.36378927
H       -1.87262868       0.90990710       1.18778040
H       -2.69811355      -0.36382257       0.28070818
H       -2.16331496       1.10436869      -0.54863940
H        1.07414968       0.06577998       1.77326491
H       -0.22581838      -1.20589029       0.71443193
H        2.50297468       0.56303413      -0.03314180
H        2.26758434      -1.02086852      -0.82098684
H        0.49072391       1.25095423      -1.34774200
14
Frame=7 idx=005795 GeodesicLength=0.4121739142296073 rxn_smarts="[C:1]([C@:2]12[C:3]([H:10])([H:11])[C:4]([H:12])([H:13])[C@@:5]1([H:14])[O:6]2)([H:7])([H:8])[H:9]>>[C:1]([C@:2]1([H:11])[C@:5]([C:4]([C:3][H:10])([H:12])[H:13])([H:14])[O:6]1)([H:7])([H:8])[H:9]"
C       -1.90488426       0.38445653       0.23106540
C       -0.58874145      -0.25759782      -0.06393881
C        1.11275513      -0.74416014       1.04675907
C        1.79638440      -0.25111936      -0.21282234
C        0.52591229       0.29504373      -0.84294154
O       -0.32183797      -0.70914365      -1.36767712
H       -1.87331731       0.90732268       1.18780748
H       -2.69695571      -0.36478766       0.27746214
H       -2.16024182       1.10388882      -0.54847031
H        1.07766197       0.08350562       1.77217572
H       -0.22618477      -1.23348396       0.71493868
H        2.51016656       0.55739712      -0.04205457
H        2.25908967      -1.03167134      -0.81739924
H        0.49019327       1.26034942      -1.33490456
14
Frame=8 idx=005795 GeodesicLength=0.47106093552394424 rxn_smarts="[C:1]([C@:2]12[C:3]([H:10])([H:11])[C:4]([H:12])([H:13])[C@@:5]1([H:14])[O:6]2)([H:7])([H:8])[H:9]>>[C:1]([C@:2]1([H:11])[C@:5]([C:4]([C:3][H:10])([H:12])[H:13])([H:14])[O:6]1)([H:7])([H:8])[H:9]"
C       -1.90292509       0.38294843       0.23034468
C       -0.58683627      -0.26132429      -0.06232000
C        1.10141482      -0.72673867       1.04497213
C        1.79705710      -0.25254768      -0.21413119
C        0.52586009       0.29891654      -0.84129934
O       -0.32031181      -0.70299683      -1.37143136
H       -1.87404156       0.90513825       1.18759808
H       -2.69574054      -0.36575684       0.27448013
H       -2.15740806       1.10327274      -0.54855420
H        1.08146113       0.10025945       1.77108437
H       -0.22583202      -1.26046759       0.71585784
H        2.51698629       0.55179850      -0.05053547
H        2.25066100      -1.04204232      -0.81375423
H        0.48965491       1.26954032      -1.32231144
14
Frame=9 idx=005795 GeodesicLength=0.529946475870696 rxn_smarts="[C:1]([C@:2]12[C:3]([H:10])([H:11])[C:4]([H:12])([H:13])[C@@:5]1([H:14])[O:6]2)([H:7])([H:8])[H:9]>>[C:1]([C@:2]1([H:11])[C@:5]([C:4]([C:3][H:10])([H:12])[H:13])([H:14])[O:6]1)([H:7])([H:8])[H:9]"
C       -1.90105377       0.38156416       0.22954983
C       -0.58500936      -0.26484900      -0.06078446
C        1.09001843      -0.70972968       1.04283494
C        1.79760124      -0.25393312      -0.21534811
C        0.52576427       0.30279996      -0.83978501
O       -0.31882897      -0.69695933      -1.37505543
H       -1.87480665       0.90334953       1.18715717
H       -2.69447799      -0.36671958       0.27174424
H       -2.15480400       1.10253638      -0.54889029
H        1.08551057       0.11603237       1.77000314
H       -0.22477238      -1.28689057       0.71722385
H        2.52345013       0.54625356      -0.05860892
H        2.24230277      -1.05198666      -0.81007602
H        0.48910571       1.27853198      -1.30996493
14
Frame=10 idx=005795 GeodesicLength=0.5888369577025563 rxn_smarts="[C:1]([C@:2]12[C:3]([H:10])([H:11])[C:4]([H:12])([H:13])[C@@:5]1([H:14])[O:6]2)([H:7])([H:8])[H:9]>>[C:1]([C@:2]1([H:11])[C@:5]([C:4]([C:3][H:10])([H:12])[H:13])([H:14])[O:6]1)([H:7])([H:8])[H:9]"
C       -1.89927303       0.38030973       0.22867703
C       -0.58326354      -0.26817170      -0.05932928
C        1.07859746      -0.69312802       1.04037325
C        1.79802415      -0.25527109      -0.21648085
C        0.52562240       0.30669768      -0.83839579
O       -0.31739297      -0.69103387      -1.37855864
H       -1.87561557       0.90195445       1.18649034
H       -2.69318010      -0.36766959       0.26923575
H       -2.15242412       1.10169790      -0.54948238
H        1.08978431       0.13081851       1.76895305
H       -0.22301403      -1.31280587       0.71907172
H        2.52957796       0.54077922      -0.06629689
H        2.23401640      -1.06151520      -0.80638787
H        0.48854067       1.28733787      -1.29786943
14
Frame=11 idx=005795 GeodesicLength=0.6477114537226746 rxn_smarts="[C:1]([C@:2]12[C:3]([H:10])([H:11])[C:4]([H:12])([H:13])[C@@:5]1([H:14])[O:6]2)([H:7])([H:8])[H:9]>>[C:1]([C@:2]1([H:11])[C@:5]([C:4]([C:3][H:10])([H:12])[H:13])([H:14])[O:6]1)([H:7])([H:8])[H:9]"
C       -1.89757871       0.37918686       0.22772955
C       -0.58159678      -0.27128645      -0.05794953
C        1.06715687      -0.67691513       1.03758002
C        1.79832738      -0.25655657      -0.21753944
C        0.52543880       0.31060593      -0.83711774
O       -0.31598542      -0.68520951      -1.38193169
H       -1.87647615       0.90094510       1.18559407
H       -2.69184211      -0.36859053       0.26695386
H       -2.15025259       1.10075042      -0.55031766
H        1.09422537       0.14460978       1.76791407
H       -0.22056555      -1.33823368       0.72142254
H        2.53537504       0.53536919      -0.07362307
H        2.22580782      -1.07062169      -0.80270549
H        0.48796605       1.29594628      -1.28600950
14
Frame=12 idx=005795 GeodesicLength=0.7065961858167258 rxn_smarts="[C:1]([C@:2]12[C:3]([H:10])([H:11])[C:4]([H:12])([H:13])[C@@:5]1([H:14])[O:6]2)([H:7])([H:8])[H:9]>>[C:1]([C@:2]1([H:11])[C@:5]([C:4]([C:3][H:10])([H:12])[H:13])([H:14])[O:6]1)([H:7])([H:8])[H:9]"
C       -1.89598016       0.37819393       0.22669842
C       -0.58001281      -0.27419598      -0.05664769
C        1.05573020      -0.66106834       1.03450749
C        1.79851787      -0.25779704      -0.21853281
C        0.52521072       0.31453987      -0.83595295
O       -0.31462073      -0.67947870      -1.38520226
H       -1.87740049       0.90029266       1.18448729
H       -2.69048466      -0.36949429       0.26484924
H       -2.14828865       1.09972991      -0.55139620
H        1.09883368       0.15744858       1.76691948
H       -0.21741377      -1.36323538       0.72431019
H        2.54088339       0.53002347      -0.08063012
H        2.21765158      -1.07936129      -0.79903954
H        0.48737384       1.30440259      -1.27437054
14
Frame=13 idx=005795 GeodesicLength=0.7654783524974899 rxn_smarts="[C:1]([C@:2]12[C:3]([H:10])([H:11])[C:4]([H:12])([H:13])[C@@:5]1([H:14])[O:6]2)([H:7])([H:8])[H:9]>>[C:1]([C@:2]1([H:11])[C@:5]([C:4]([C:3][H:10])([H:12])[H:13])([H:14])[O:6]1)([H:7])([H:8])[H:9]"
C       -1.89448288       0.37732545       0.22558007
C       -0.57851202      -0.27689718      -0.05542161
C        1.04432878      -0.64555619       1.03117240
C        1.79859829      -0.25899953      -0.21947391
C        0.52493974       0.31850566      -0.83489256
O       -0.31329414      -0.67382501      -1.38837557
H       -1.87841592       0.89996025       1.18317988
H       -2.68911526      -0.37038114       0.26287861
H       -2.14651934       1.09864977      -0.55270320
H        1.10359183       0.16936868       1.76596902
H       -0.21354587      -1.38782838       0.72776589
H        2.54613290       0.52472007      -0.08736346
H        2.20952833      -1.08776898      -0.79539900
H        0.48676556       1.31272652      -1.26291655
14
Frame=14 idx=005795 GeodesicLength=0.8243966424026544 rxn_smarts="[C:1]([C@:2]12[C:3]([H:10])([H:11])[C:4]([H:12])([H:13])[C@@:5]1([H:14])[O:6]2)([H:7])([H:8])[H:9]>>[C:1]([C@:2]1([H:11])[C@:5]([C:4]([C:3][H:10])([H:12])[H:13])([H:14])[O:6]1)([H:7])([H:8])[H:9]"
C       -1.89308440       0.37657605       0.22437650
C       -0.57709092      -0.27939196      -0.05426397
C        1.03295410      -0.63033252       1.02758631
C        1.79857044      -0.26017185      -0.22036676
C        0.52463089       0.32251078      -0.83392306
O       -0.31199960      -0.66823015      -1.39145737
H       -1.87953324       0.89991582       1.18168802
H       -2.68773794      -0.37125286       0.26101171
H       -2.14492801       1.09752483      -0.55422240
H        1.10846186       0.18041725       1.76501585
H       -0.20895757      -1.41206512       0.73180067
H        2.55114895       0.51943477      -0.09386593
H        2.20141974      -1.09587622      -0.79177103
H        0.48614571       1.32094118      -1.25160853
14
Frame=15 idx=005795 GeodesicLength=0.8833042920999651 rxn_smarts="[C:1]([C@:2]12[C:3]([H:10])([H:11])[C:4]([H:12])([H:13])[C@@:5]1([H:14])[O:6]2)([H:7])([H:8])[H:9]>>[C:1]([C@:2]1([H:11])[C@:5]([C:4]([C:3][H:10])([H:12])[H:13])([H:14])[O:6]1)([H:7])([H:8])[H:9]"
C       -1.89178370       0.37595921       0.22308274
C       -0.57575706      -0.28168341      -0.05318659
C        1.02162105      -0.61543782       1.02375881
C        1.79843594      -0.26129825      -0.22121850
C        0.52427722       0.32655144      -0.83305359
O       -0.31074198      -0.66270312      -1.39446053
H       -1.88072680       0.90020370       1.17998737
H       -2.68635453      -0.37208967       0.25928626
H       -2.14352387       1.09634421      -0.55597517
H        1.11342274       0.19052729       1.76412837
H       -0.20364104      -1.43596251       0.73644883
H        2.55591526       0.51420938      -0.10011113
H        2.19334589      -1.10365360      -0.78820108
H        0.48551086       1.32903314      -1.24048578
14
Frame=16 idx=005795 GeodesicLength=0.9422151792522055 rxn_smarts="[C:1]([C@:2]12[C:3]([H:10])([H:11])[C:4]([H:12])([H:13])[C@@:5]1([H:14])[O:6]2)([H:7])([H:8])[H:9]>>[C:1]([C@:2]1([H:11])[C@:5]([C:4]([C:3][H:10])([H:12])[H:13])([H:14])[O:6]1)([H:7])([H:8])[H:9]"
C       -1.89057835       0.37548514       0.22170060
C       -0.57451220      -0.28377120      -0.05218492
C        1.01033361      -0.60087716       1.01969115
C        1.79819881      -0.26237058      -0.22203108
C        0.52387709       0.33062547      -0.83228170
O       -0.30952074      -0.65724795      -1.39738815
H       -1.88198961       0.90083888       1.17807912
H       -2.68496871      -0.37287650       0.25770722
H       -2.14230291       1.09511691      -0.55796395
H        1.11844187       0.19966527       1.76330845
H       -0.19758865      -1.45956088       0.74173508
H        2.56042812       0.50906471      -0.10609580
H        2.18532446      -1.11108778      -0.78470343
H        0.48485723       1.33699568      -1.22957257
