18
Frame=0 idx=006568 GeodesicLength=0.0 rxn_smarts="[C:1]([C:2]([C:3]([C:4]([C:5]([H:16])([H:17])[H:18])([H:14])[H:15])([C:6]#[N:7])[H:13])([H:11])[H:12])([H:8])([H:9])[H:10]>>[C:1]([C:2]([C@@:3]1([H:13])[C:6]([C:5]([C:4]([H:14])([H:15])[H:17])([H:16])[H:18])=[N:7]1)([H:11])[H:12])([H:8])([H:9])[H:10]"
C       -2.53556700       0.19292652      -0.20828628
C       -1.21129695      -0.55095070      -0.36723809
C       -0.11081624       0.00763487       0.49690887
C        1.48755057      -0.83733820       0.28516687
C        2.08705685       0.59111964      -0.11073519
C        0.57981865       1.28383737       0.07960675
N        0.15990868       2.39204024      -0.04626662
H       -3.30448990      -0.25165006      -0.84310470
H       -2.41340891       1.24149991      -0.47964390
H       -2.88560878       0.15424841       0.82556983
H       -1.34996028      -1.60347576      -0.09697335
H       -0.89384722      -0.52461493      -1.41477012
H       -0.37808527      -0.00983247       1.55867794
H        1.59949848      -1.26611204       1.28048130
H        1.22162463      -1.55919383      -0.48494224
H        2.81455114       0.97235352       0.60347576
H        2.67193536      -0.87070440       0.05382886
H        2.46113611       0.63821184      -1.13175573
18
Frame=1 idx=006568 GeodesicLength=0.09460406049487903 rxn_smarts="[C:1]([C:2]([C:3]([C:4]([C:5]([H:16])([H:17])[H:18])([H:14])[H:15])([C:6]#[N:7])[H:13])([H:11])[H:12])([H:8])([H:9])[H:10]>>[C:1]([C:2]([C@@:3]1([H:13])[C:6]([C:5]([C:4]([H:14])([H:15])[H:17])([H:16])[H:18])=[N:7]1)([H:11])[H:12])([H:8])([H:9])[H:10]"
C       -2.54698913       0.19100508      -0.20312440
C       -1.22040248      -0.54782452      -0.36336161
C       -0.11554098       0.02378509       0.48751617
C        1.49577032      -0.84152778       0.27208680
C        2.11202604       0.57957386      -0.09720805
C        0.58435382       1.27929526       0.04483843
N        0.14320229       2.38132295      -0.04909329
H       -3.31928228      -0.26538803      -0.82527844
H       -2.43320849       1.23636278      -0.49032811
H       -2.88854966       0.16470546       0.83397495
H       -1.35309922      -1.59799134      -0.08118373
H       -0.91054439      -0.53195504      -1.41329636
H       -0.37658981       0.02018003       1.55087356
H        1.58819083      -1.28263291       1.26379930
H        1.23585676      -1.54722615      -0.51491027
H        2.81325063       0.96202834       0.64211888
H        2.69655739      -0.87438831       0.05585872
H        2.49499837       0.65067523      -1.11328254
18
Frame=2 idx=006568 GeodesicLength=0.18904460421116637 rxn_smarts="[C:1]([C:2]([C:3]([C:4]([C:5]([H:16])([H:17])[H:18])([H:14])[H:15])([C:6]#[N:7])[H:13])([H:11])[H:12])([H:8])([H:9])[H:10]>>[C:1]([C:2]([C@@:3]1([H:13])[C:6]([C:5]([C:4]([H:14])([H:15])[H:17])([H:16])[H:18])=[N:7]1)([H:11])[H:12])([H:8])([H:9])[H:10]"
C       -2.55822509       0.18918060      -0.19771801
C       -1.22933667      -0.54456164      -0.35934916
C       -0.12030592       0.04019293       0.47803997
C        1.50412199      -0.84584789       0.25863510
C        2.13621981       0.56790592      -0.08311152
C        0.58889296       1.27464260       0.01059356
N        0.12737433       2.36965588      -0.05406796
H       -3.33371364      -0.27893349      -0.80699559
H       -2.45301979       1.23105124      -0.50068075
H       -2.89132587       0.17534312       0.84239457
H       -1.35587177      -1.59222848      -0.06531744
H       -0.92697783      -0.53908171      -1.41150441
H       -0.37494040       0.05008678       1.54280950
H        1.57671522      -1.29934348       1.24618254
H        1.25067016      -1.53475564      -0.54520771
H        2.81026602       0.95104839       0.68069320
H        2.72143512      -0.87786707       0.05818773
H        2.52802137       0.66351191      -1.09358361
18
Frame=3 idx=006568 GeodesicLength=0.28334326915576635 rxn_smarts="[C:1]([C:2]([C:3]([C:4]([C:5]([H:16])([H:17])[H:18])([H:14])[H:15])([C:6]#[N:7])[H:13])([H:11])[H:12])([H:8])([H:9])[H:10]>>[C:1]([C:2]([C@@:3]1([H:13])[C:6]([C:5]([C:4]([H:14])([H:15])[H:17])([H:16])[H:18])=[N:7]1)([H:11])[H:12])([H:8])([H:9])[H:10]"
C       -2.56925978       0.18744831      -0.19207959
C       -1.23806386      -0.54112503      -0.35521228
C       -0.12513243       0.05679922       0.46859745
C        1.51262296      -0.85030672       0.24488093
C        2.15961920       0.55607185      -0.06850041
C        0.59342849       1.26988968      -0.02270561
N        0.11241369       2.35720178      -0.06153771
H       -3.34772469      -0.29224642      -0.78835893
H       -2.47283151       1.22559039      -0.51060416
H       -2.89397954       0.18604861       0.85079705
H       -1.35825087      -1.58618405      -0.04951039
H       -0.94303921      -0.54582570      -1.40938560
H       -0.37323148       0.07977882       1.53459752
H        1.56514966      -1.31621222       1.22768838
H        1.26606663      -1.52181949      -0.57569539
H        2.80573928       0.93936311       0.71899124
H        2.74656264      -0.88114594       0.06080533
H        2.55991082       0.67667380      -1.07276784
18
Frame=4 idx=006568 GeodesicLength=0.3775340289652439 rxn_smarts="[C:1]([C:2]([C:3]([C:4]([C:5]([H:16])([H:17])[H:18])([H:14])[H:15])([C:6]#[N:7])[H:13])([H:11])[H:12])([H:8])([H:9])[H:10]>>[C:1]([C:2]([C@@:3]1([H:13])[C:6]([C:5]([C:4]([H:14])([H:15])[H:17])([H:16])[H:18])=[N:7]1)([H:11])[H:12])([H:8])([H:9])[H:10]"
C       -2.58008879       0.18579948      -0.18622845
C       -1.24656930      -0.53750279      -0.35095132
C       -0.13003952       0.07356480       0.45926731
C        1.52128950      -0.85490696       0.23086405
C        2.18224030       0.54402951      -0.05343166
C        0.59793826       1.26504623      -0.05482532
N        0.09829259       2.34411371      -0.07161760
H       -3.36128140      -0.30530684      -0.76945255
H       -2.49262184       1.21999482      -0.52005024
H       -2.89655069       0.19675376       0.85915425
H       -1.36023331      -1.57986449      -0.03382312
H       -0.95866680      -0.55211314      -1.40693458
H       -0.37153517       0.10922609       1.52631739
H        1.55354705      -1.33320735       1.20834736
H        1.28205166      -1.50844174      -0.60627625
H        2.79979750       0.92692585       0.75686411
H        2.77194758      -0.88423645       0.06370738
H        2.59048237       0.69012553      -1.05093077
18
Frame=5 idx=006568 GeodesicLength=0.4716128159806755 rxn_smarts="[C:1]([C:2]([C:3]([C:4]([C:5]([H:16])([H:17])[H:18])([H:14])[H:15])([C:6]#[N:7])[H:13])([H:11])[H:12])([H:8])([H:9])[H:10]>>[C:1]([C:2]([C@@:3]1([H:13])[C:6]([C:5]([C:4]([H:14])([H:15])[H:17])([H:16])[H:18])=[N:7]1)([H:11])[H:12])([H:8])([H:9])[H:10]"
C       -2.59071156       0.18422612      -0.18019676
C       -1.25485006      -0.53370312      -0.34656461
C       -0.13503709       0.09046646       0.45007929
C        1.53014025      -0.85965046       0.21660344
C        2.20412270       0.53173189      -0.03797392
C        0.60240643       1.26009623      -0.08572186
N        0.08492940       2.33061960      -0.08413181
H       -3.37436671      -0.31811466      -0.75034453
H       -2.51236456       1.21426462      -0.52902523
H       -2.89906773       0.20743692       0.86743214
H       -1.36183243      -1.57328108      -0.01825097
H       -0.97383744      -0.55797115      -1.40415573
H       -0.36989093       0.13846519       1.51800264
H        1.54194409      -1.35028358       1.18818462
H        1.29863464      -1.49465821      -0.63686456
H        2.79255362       0.91369981       0.79419344
H        2.79759818      -0.88716127       0.06688295
H        2.61962920       0.70381669      -1.02814855
18
Frame=6 idx=006568 GeodesicLength=0.5656173552664611 rxn_smarts="[C:1]([C:2]([C:3]([C:4]([C:5]([H:16])([H:17])[H:18])([H:14])[H:15])([C:6]#[N:7])[H:13])([H:11])[H:12])([H:8])([H:9])[H:10]>>[C:1]([C:2]([C@@:3]1([H:13])[C:6]([C:5]([C:4]([H:14])([H:15])[H:17])([H:16])[H:18])=[N:7]1)([H:11])[H:12])([H:8])([H:9])[H:10]"
C       -2.60113674       0.18272140      -0.17400419
C       -1.26291564      -0.52973928      -0.34204129
C       -0.14013764       0.10749626       0.44105004
C        1.53918773      -0.86453122       0.20209382
C        2.22530761       0.51914535      -0.02217197
C        0.60679609       1.25504574      -0.11540670
N        0.07229574       2.31680679      -0.09893585
H       -3.38698495      -0.33067749      -0.73107467
H       -2.53203241       1.20839990      -0.53754714
H       -2.90155948       0.21809666       0.87561488
H       -1.36306990      -1.56644282      -0.00276047
H       -0.98855433      -0.56344498      -1.40104531
H       -0.36833142       0.16755252       1.50967361
H        1.53036297      -1.36740909       1.16718446
H        1.31583006      -1.48047108      -0.66742435
H        2.78408806       0.89964407       0.83091714
H        2.82353418      -0.88992506       0.07033821
H        2.64732005       0.71773232      -1.00446022
18
Frame=7 idx=006568 GeodesicLength=0.6595398524741832 rxn_smarts="[C:1]([C:2]([C:3]([C:4]([C:5]([H:16])([H:17])[H:18])([H:14])[H:15])([C:6]#[N:7])[H:13])([H:11])[H:12])([H:8])([H:9])[H:10]>>[C:1]([C:2]([C@@:3]1([H:13])[C:6]([C:5]([C:4]([H:14])([H:15])[H:17])([H:16])[H:18])=[N:7]1)([H:11])[H:12])([H:8])([H:9])[H:10]"
C       -2.61137076       0.18127724      -0.16767198
C       -1.27077348      -0.52562725      -0.33737066
C       -0.14534541       0.12465788       0.43216954
C        1.54844709      -0.86954297       0.18732171
C        2.24583802       0.50623714      -0.00606922
C        0.61108292       1.24988890      -0.14396862
N        0.06032270       2.30280497      -0.11577624
H       -3.39914084      -0.34300998      -0.71167177
H       -2.55160561       1.20239109      -0.54565131
H       -2.90404210       0.22874696       0.88368408
H       -1.36396191      -1.55935417       0.01270241
H       -1.00283010      -0.56861097      -1.39760269
H       -0.36686919       0.19656966       1.50132212
H        1.51881569      -1.38454849       1.14532980
H        1.33365636      -1.46589042      -0.69792564
H        2.77447031       0.88472241       0.86697889
H        2.84976609      -0.89255481       0.07408676
H        2.67354023       0.73184282      -0.97988719
18
Frame=8 idx=006568 GeodesicLength=0.7534021407006353 rxn_smarts="[C:1]([C:2]([C:3]([C:4]([C:5]([H:16])([H:17])[H:18])([H:14])[H:15])([C:6]#[N:7])[H:13])([H:11])[H:12])([H:8])([H:9])[H:10]>>[C:1]([C:2]([C@@:3]1([H:13])[C:6]([C:5]([C:4]([H:14])([H:15])[H:17])([H:16])[H:18])=[N:7]1)([H:11])[H:12])([H:8])([H:9])[H:10]"
C       -2.62142401       0.17988887      -0.16121757
C       -1.27843818      -0.52138661      -0.33253935
C       -0.15066475       0.14195869       0.42341646
C        1.55793402      -0.87468274       0.17226444
C        2.26575760       0.49297062       0.01030036
C        0.61523806       1.24461222      -0.17152622
N        0.04895457       2.28871189      -0.13440030
H       -3.41085051      -0.35512775      -0.69214608
H       -2.57106415       1.19622745      -0.55338331
H       -2.90653042       0.23942013       0.89162779
H       -1.36453050      -1.55201683       0.02820655
H       -1.01669063      -0.57356272      -1.39382377
H       -0.36550927       0.22560244       1.49292681
H        1.50731192      -1.40167611       1.12258422
H        1.35213829      -1.45091355      -0.72835715
H        2.76374605       0.86889576       0.90234078
H        2.87631551      -0.89505400       0.07815036
H        2.69830641       0.74613224      -0.95442401
18
Frame=9 idx=006568 GeodesicLength=0.8471641657771382 rxn_smarts="[C:1]([C:2]([C:3]([C:4]([C:5]([H:16])([H:17])[H:18])([H:14])[H:15])([C:6]#[N:7])[H:13])([H:11])[H:12])([H:8])([H:9])[H:10]>>[C:1]([C:2]([C@@:3]1([H:13])[C:6]([C:5]([C:4]([H:14])([H:15])[H:17])([H:16])[H:18])=[N:7]1)([H:11])[H:12])([H:8])([H:9])[H:10]"
C       -2.63132523       0.17854836      -0.15461781
C       -1.28593510      -0.51702585      -0.32753545
C       -0.15611294       0.15939179       0.41480159
C        1.56765125      -0.87992469       0.15687473
C        2.28508726       0.47934018       0.02692355
C        0.61924039       1.23923019      -0.19810819
N        0.03821638       2.27442486      -0.15490690
H       -3.42214603      -0.36701144      -0.67249982
H       -2.59041938       1.18991400      -0.56069141
H       -2.90905765       0.25007683       0.89947053
H       -1.36479657      -1.54443900       0.04376197
H       -1.03017060      -0.57830656      -1.38971015
H       -0.36428925       0.25470018       1.48449498
H        1.49590075      -1.41876182       1.09890577
H        1.37127185      -1.43547985      -0.75876580
H        2.75199267       0.85215810       0.93704103
H        2.90315170      -0.89737353       0.08255938
H        2.72174051       0.76053825      -0.92799801
18
Frame=10 idx=006568 GeodesicLength=0.9408729529209787 rxn_smarts="[C:1]([C:2]([C:3]([C:4]([C:5]([H:16])([H:17])[H:18])([H:14])[H:15])([C:6]#[N:7])[H:13])([H:11])[H:12])([H:8])([H:9])[H:10]>>[C:1]([C:2]([C@@:3]1([H:13])[C:6]([C:5]([C:4]([H:14])([H:15])[H:17])([H:16])[H:18])=[N:7]1)([H:11])[H:12])([H:8])([H:9])[H:10]"
C       -2.64106109       0.17725091      -0.14791463
C       -1.29325847      -0.51256657      -0.32233881
C       -0.16167358       0.17699579       0.40625443
C        1.57762924      -0.88527679       0.14113829
C        2.30388207       0.46529075       0.04376457
C        0.62306603       1.23371236      -0.22394494
N        0.02797506       2.26019229      -0.17676308
H       -3.43302490      -0.37872670      -0.65271650
H       -2.60963672       1.18341607      -0.56771883
H       -2.91160037       0.26082451       0.90717839
H       -1.36476029      -1.53660126       0.05950454
H       -1.04328627      -0.58301122      -1.38524145
H       -0.36316403       0.28399794       1.47595325
H        1.48452059      -1.43580516       1.07423071
H        1.39111989      -1.41962006      -0.78911410
H        2.73918282       0.83443074       0.97102564
H        2.93032977      -0.89959012       0.08733721
H        2.74376023       0.77508653      -0.90063465
18
Frame=11 idx=006568 GeodesicLength=1.034520352786997 rxn_smarts="[C:1]([C:2]([C:3]([C:4]([C:5]([H:16])([H:17])[H:18])([H:14])[H:15])([C:6]#[N:7])[H:13])([H:11])[H:12])([H:8])([H:9])[H:10]>>[C:1]([C:2]([C@@:3]1([H:13])[C:6]([C:5]([C:4]([H:14])([H:15])[H:17])([H:16])[H:18])=[N:7]1)([H:11])[H:12])([H:8])([H:9])[H:10]"
C       -2.65063712       0.17599188      -0.14110757
C       -1.30041011      -0.50801138      -0.31693930
C       -0.16734365       0.19479078       0.39774797
C        1.58788039      -0.89073526       0.12503778
C        2.32216874       0.45079201       0.06081026
C        0.62670387       1.22805461      -0.24912450
N        0.01817839       2.24605142      -0.19984293
H       -3.44349287      -0.39028853      -0.63279239
H       -2.62871531       1.17672481      -0.57447912
H       -2.91416259       0.27167147       0.91475068
H       -1.36441847      -1.52848884       0.07548014
H       -1.05604905      -0.58772630      -1.38040979
H       -0.36213238       0.31357717       1.46726623
H        1.47316392      -1.45279568       1.04852526
H        1.41170754      -1.40332917      -0.81940208
H        2.72534715       0.81567868       1.00428452
H        2.95785858      -0.90170511       0.09249715
H        2.76435298       0.78974744      -0.87230229
18
Frame=12 idx=006568 GeodesicLength=1.1281198230024314 rxn_smarts="[C:1]([C:2]([C:3]([C:4]([C:5]([H:16])([H:17])[H:18])([H:14])[H:15])([C:6]#[N:7])[H:13])([H:11])[H:12])([H:8])([H:9])[H:10]>>[C:1]([C:2]([C@@:3]1([H:13])[C:6]([C:5]([C:4]([H:14])([H:15])[H:17])([H:16])[H:18])=[N:7]1)([H:11])[H:12])([H:8])([H:9])[H:10]"
C       -2.66005933       0.17476676      -0.13419084
C       -1.30739510      -0.50336497      -0.31132184
C       -0.17312162       0.21279916       0.38924738
C        1.59842190      -0.89628943       0.10853382
C        2.33997051       0.43581349       0.07805994
C        0.63013446       1.22225110      -0.27374836
N        0.00878922       2.23201631      -0.22404702
H       -3.45356531      -0.40172068      -0.61269164
H       -2.64765453       1.16982207      -0.58100641
H       -2.91674181       0.28265192       0.92219686
H       -1.36376878      -1.52008300       0.09175061
H       -1.06848163      -0.59251320      -1.37520048
H       -0.36118752       0.34351867       1.45838979
H        1.46182331      -1.46972462       1.02171478
H        1.43307151      -1.38657031      -0.84964996
H        2.71047994       0.79584559       1.03682876
H        2.98575024      -0.90372258       0.09807431
H        2.78353455       0.80450372      -0.84293970
18
Frame=13 idx=006568 GeodesicLength=1.221663882785346 rxn_smarts="[C:1]([C:2]([C:3]([C:4]([C:5]([H:16])([H:17])[H:18])([H:14])[H:15])([C:6]#[N:7])[H:13])([H:11])[H:12])([H:8])([H:9])[H:10]>>[C:1]([C:2]([C@@:3]1([H:13])[C:6]([C:5]([C:4]([H:14])([H:15])[H:17])([H:16])[H:18])=[N:7]1)([H:11])[H:12])([H:8])([H:9])[H:10]"
C       -2.66933126       0.17356779      -0.12715408
C       -1.31421273      -0.49862619      -0.30547228
C       -0.17900477       0.23104853       0.38071462
C        1.60926733      -0.90193223       0.09159326
C        2.35730329       0.42032299       0.09551332
C        0.63335017       1.21629748      -0.29790695
N       -0.00023387       2.21810317      -0.24930162
H       -3.46324745      -0.41304745      -0.59238153
H       -2.66646154       1.16268940      -0.58731826
H       -2.91933319       0.29378519       0.92952733
H       -1.36279677      -1.51136085       0.10836611
H       -1.08059662      -0.59741707      -1.36959923
H       -0.36032250       0.37390957       1.44927273
H        1.45048658      -1.48658486       0.99373327
H        1.45524532      -1.36931440      -0.87987566
H        2.69458593       0.77487785       1.06866027
H        3.01400569      -0.90564860       0.10410113
H        2.80129638       0.81932968      -0.81247244
18
Frame=14 idx=006568 GeodesicLength=1.315146918024167 rxn_smarts="[C:1]([C:2]([C:3]([C:4]([C:5]([H:16])([H:17])[H:18])([H:14])[H:15])([C:6]#[N:7])[H:13])([H:11])[H:12])([H:8])([H:9])[H:10]>>[C:1]([C:2]([C@@:3]1([H:13])[C:6]([C:5]([C:4]([H:14])([H:15])[H:17])([H:16])[H:18])=[N:7]1)([H:11])[H:12])([H:8])([H:9])[H:10]"
C       -2.67845479       0.17238976      -0.11998579
C       -1.32086027      -0.49379059      -0.29937695
C       -0.18499162       0.24956405       0.37211861
C        1.62043328      -0.90765322       0.07419299
C        2.37417899       0.40428817       0.11317095
C        0.63633908       1.21019709      -0.32167247
N       -0.00892515       2.20431160      -0.27557107
H       -3.47253838      -0.42427497      -0.57184926
H       -2.68514331       1.15531479      -0.59340795
H       -2.92193871       0.30506791       0.93675029
H       -1.36148602      -1.50229643       0.12536971
H       -1.09240340      -0.60247104      -1.36358581
H       -0.35953641       0.40482984       1.43986894
H        1.43915387      -1.50336340       0.96451283
H        1.47827097      -1.35153196      -0.91007800
H        2.67767129       0.75271979       1.09976377
H        3.04262767      -0.90748755       0.11060645
H        2.81760290       0.83418616      -0.78082723
18
Frame=15 idx=006568 GeodesicLength=1.4085837777728831 rxn_smarts="[C:1]([C:2]([C:3]([C:4]([C:5]([H:16])([H:17])[H:18])([H:14])[H:15])([C:6]#[N:7])[H:13])([H:11])[H:12])([H:8])([H:9])[H:10]>>[C:1]([C:2]([C@@:3]1([H:13])[C:6]([C:5]([C:4]([H:14])([H:15])[H:17])([H:16])[H:18])=[N:7]1)([H:11])[H:12])([H:8])([H:9])[H:10]"
C       -2.68743097       0.17123026      -0.11266762
C       -1.32733653      -0.48886014      -0.29301095
C       -0.19107984       0.26837324       0.36341634
C        1.63194154      -0.91343834       0.05627394
C        2.39059947       0.38767016       0.13105374
C        0.63909098       1.20394049      -0.34514209
N       -0.01731134       2.19062417      -0.30283894
H       -3.48145058      -0.43543830      -0.55101208
H       -2.70370763       1.14766194      -0.59932116
H       -2.92454102       0.31656581       0.94387927
H       -1.35981982      -1.49285781       0.14283761
H       -1.10391831      -0.60773816      -1.35712784
H       -0.35881653       0.43637154       1.43011610
H        1.42781353      -1.52006304       0.93391628
H        1.50220821      -1.33314096      -0.94030214
H        2.65969177       0.72926983       1.13015683
H        3.07161814      -0.90923414       0.11765020
H        2.83244893       0.84906348      -0.74787749
18
Frame=16 idx=006568 GeodesicLength=1.5019486290896185 rxn_smarts="[C:1]([C:2]([C:3]([C:4]([C:5]([H:16])([H:17])[H:18])([H:14])[H:15])([C:6]#[N:7])[H:13])([H:11])[H:12])([H:8])([H:9])[H:10]>>[C:1]([C:2]([C@@:3]1([H:13])[C:6]([C:5]([C:4]([H:14])([H:15])[H:17])([H:16])[H:18])=[N:7]1)([H:11])[H:12])([H:8])([H:9])[H:10]"
C       -2.69625884       0.17008085      -0.10518038
C       -1.33363294      -0.48382473      -0.28636278
C       -0.19726710       0.28750475       0.35456810
C        1.64381091      -0.91927197       0.03781163
C        2.40656243       0.37042864       0.14915637
C        0.64160033       1.19752950      -0.36838607
N       -0.02542725       2.17704792      -0.33108933
H       -3.48997376      -0.44653993      -0.52986036
H       -2.72216450       1.13972198      -0.60502598
H       -2.92714100       0.32825539       0.95092871
H       -1.35776691      -1.48301204       0.16080175
H       -1.11514395      -0.61323832      -1.35020473
H       -0.35816222       0.46861892       1.41995318
H        1.41647419      -1.53665727       0.90187008
H        1.52710708      -1.31410846      -0.97052778
H        2.64064353       0.70446474       1.15980471
H        3.10096657      -0.91089563       0.12528376
H        2.84577343       0.86389566      -0.71354090
