16
Frame=0 idx=011337 GeodesicLength=0.0 rxn_smarts="[C:1]([c:2]1[c:3]([C:4]([H:11])([H:12])[H:13])[c:5]([H:14])[c:6]([H:15])[n:7]1[H:16])([H:8])([H:9])[H:10]>>[C:1]([C:2]1([C:4]([H:11])([H:12])[H:13])[C-:3]=[C:5]([H:14])[C+:6]([H:15])[N:7]1[H:16])([H:8])([H:9])[H:10]"
C       -1.46514013       0.98492415      -0.77150136
C       -0.23659102       0.24364800      -0.33083844
C        0.23073445      -1.01598316      -0.80276459
C       -0.78766422      -1.03320243       0.80715288
C        1.63202550      -0.99605405      -0.38189492
C        1.94509993       0.21141372       0.14561684
N        0.82900665       1.00541724       0.15779642
H       -2.18435103       0.28460380      -1.19071428
H       -1.19672380       1.70115886      -1.54926791
H       -1.93475546       1.53106570       0.05173917
H       -1.86089631      -1.03941853       0.65337928
H       -0.50383748      -0.50367338       1.71969724
H       -0.44788082      -2.05853535       0.88652970
H        2.33442269      -1.80347930      -0.52893726
H        2.88697498       0.59297144       0.51677176
H        0.75957610       1.89514330       0.61723554
16
Frame=1 idx=011337 GeodesicLength=0.06613492136459127 rxn_smarts="[C:1]([c:2]1[c:3]([C:4]([H:11])([H:12])[H:13])[c:5]([H:14])[c:6]([H:15])[n:7]1[H:16])([H:8])([H:9])[H:10]>>[C:1]([C:2]1([C:4]([H:11])([H:12])[H:13])[C-:3]=[C:5]([H:14])[C+:6]([H:15])[N:7]1[H:16])([H:8])([H:9])[H:10]"
C       -1.45761671       0.99250759      -0.76982255
C       -0.23704986       0.24569887      -0.31729096
C        0.22871977      -1.01379728      -0.79038470
C       -0.79845791      -1.04550006       0.81082245
C        1.63338263      -0.99159260      -0.39461814
C        1.94884282       0.21236004       0.14411065
N        0.83415948       1.00471472       0.16722671
H       -2.18282211       0.29564909      -1.18443992
H       -1.18211333       1.69931023      -1.55383157
H       -1.92527854       1.54948058       0.04723556
H       -1.86635740      -1.09777944       0.62821066
H       -0.57500777      -0.49615876       1.72846730
H       -0.42486460      -2.05579756       0.92809912
H        2.33441496      -1.79894690      -0.54854770
H        2.89872437       0.60031724       0.48725112
H        0.77132420       1.89953423       0.61751198
16
Frame=2 idx=011337 GeodesicLength=0.1316151932089359 rxn_smarts="[C:1]([c:2]1[c:3]([C:4]([H:11])([H:12])[H:13])[c:5]([H:14])[c:6]([H:15])[n:7]1[H:16])([H:8])([H:9])[H:10]>>[C:1]([C:2]1([C:4]([H:11])([H:12])[H:13])[C-:3]=[C:5]([H:14])[C+:6]([H:15])[N:7]1[H:16])([H:8])([H:9])[H:10]"
C       -1.44998495       1.00025696      -0.76771550
C       -0.23745336       0.24796086      -0.30345531
C        0.22682823      -1.01124445      -0.77819012
C       -0.80909299      -1.05801454       0.81420353
C        1.63448138      -0.98683488      -0.40767391
C        1.95304985       0.21396823       0.14102135
N        0.83942840       1.00407929       0.17698932
H       -2.18162039       0.30683415      -1.17681089
H       -1.16757289       1.69706272      -1.55830222
H       -1.91505796       1.56856880       0.04297964
H       -1.86875702      -1.15760843       0.60269099
H       -0.64825032      -0.49065180       1.73408871
H       -0.40236689      -2.05061810       0.97031266
H        2.33320829      -1.79551148      -0.56527636
H        2.91002038       0.60808486       0.45667897
H        0.78314024       1.90366782       0.61845913
16
Frame=3 idx=011337 GeodesicLength=0.1964264253018958 rxn_smarts="[C:1]([c:2]1[c:3]([C:4]([H:11])([H:12])[H:13])[c:5]([H:14])[c:6]([H:15])[n:7]1[H:16])([H:8])([H:9])[H:10]>>[C:1]([C:2]1([C:4]([H:11])([H:12])[H:13])[C-:3]=[C:5]([H:14])[C+:6]([H:15])[N:7]1[H:16])([H:8])([H:9])[H:10]"
C       -1.44235286       1.00822495      -0.76509971
C       -0.23781903       0.25051418      -0.28944806
C        0.22501944      -1.00819079      -0.76642522
C       -0.81940729      -1.07073921       0.81715282
C        1.63529842      -0.98166997      -0.42139825
C        1.95773379       0.21648507       0.13573685
N        0.84485159       1.00362836       0.18677537
H       -2.18085882       0.31822631      -1.16767037
H       -1.15338027       1.69451465      -1.56259644
H       -1.90409604       1.58828961       0.03914637
H       -1.86778258      -1.21885146       0.57707683
H       -0.72299723      -0.48753386       1.73623840
H       -0.38047241      -2.04293485       1.01285951
H        2.33052479      -1.79358270      -0.57800571
H        2.92067221       0.61598217       0.42582323
H        0.79506628       1.90763753       0.61983439
16
Frame=4 idx=011337 GeodesicLength=0.26065943587890517 rxn_smarts="[C:1]([c:2]1[c:3]([C:4]([H:11])([H:12])[H:13])[c:5]([H:14])[c:6]([H:15])[n:7]1[H:16])([H:8])([H:9])[H:10]>>[C:1]([C:2]1([C:4]([H:11])([H:12])[H:13])[C-:3]=[C:5]([H:14])[C+:6]([H:15])[N:7]1[H:16])([H:8])([H:9])[H:10]"
C       -1.43460681       1.01642964      -0.76199743
C       -0.23813043       0.25331110      -0.27512832
C        0.22330565      -1.00469756      -0.75489191
C       -0.82964208      -1.08369278       0.81967653
C        1.63577421      -0.97630415      -0.43527889
C        1.96278938       0.21984761       0.12855082
N        0.85043780       1.00327897       0.19679225
H       -2.18036244       0.32990461      -1.15717475
H       -1.13930817       1.69169207      -1.56667022
H       -1.89236339       1.60862261       0.03566579
H       -1.86343787      -1.28142333       0.55150221
H       -0.79930267      -0.48718956       1.73475942
H       -0.35979086      -2.03274311       1.05580759
H        2.32660331      -1.79292793      -0.58702121
H        2.93095829       0.62452735       0.39354071
H        0.80707609       1.91136447       0.62186742
16
Frame=5 idx=011337 GeodesicLength=0.32437562881291887 rxn_smarts="[C:1]([c:2]1[c:3]([C:4]([H:11])([H:12])[H:13])[c:5]([H:14])[c:6]([H:15])[n:7]1[H:16])([H:8])([H:9])[H:10]>>[C:1]([C:2]1([C:4]([H:11])([H:12])[H:13])[C-:3]=[C:5]([H:14])[C+:6]([H:15])[N:7]1[H:16])([H:8])([H:9])[H:10]"
C       -1.42665450       1.02466047      -0.75859801
C       -0.23841753       0.25613890      -0.26032166
C        0.22160113      -1.00113807      -0.74309171
C       -0.83995194      -1.09679268       0.82224851
C        1.63582182      -0.97103759      -0.44879295
C        1.96810268       0.22383095       0.11953528
N        0.85622140       1.00287618       0.20697166
H       -2.18002393       0.34166675      -1.14550097
H       -1.12514424       1.68817289      -1.57080105
H       -1.87980920       1.62953189       0.03214774
H       -1.85589940      -1.34480153       0.52663063
H       -0.87762768      -0.48892393       1.72972033
H       -0.34042175      -2.01970857       1.09995526
H        2.32247566      -1.79207779      -0.59619886
H        2.94048172       0.63278005       0.36182894
H        0.81924576       1.91482207       0.62426686
16
Frame=6 idx=011337 GeodesicLength=0.38764218061960376 rxn_smarts="[C:1]([c:2]1[c:3]([C:4]([H:11])([H:12])[H:13])[c:5]([H:14])[c:6]([H:15])[n:7]1[H:16])([H:8])([H:9])[H:10]>>[C:1]([C:2]1([C:4]([H:11])([H:12])[H:13])[C-:3]=[C:5]([H:14])[C+:6]([H:15])[N:7]1[H:16])([H:8])([H:9])[H:10]"
C       -1.41835467       1.03298810      -0.75487589
C       -0.23863521       0.25901669      -0.24488267
C        0.21998322      -0.99749519      -0.73084466
C       -0.85064973      -1.11003231       0.82474919
C        1.63543399      -0.96610338      -0.46123918
C        1.97361100       0.22840913       0.10922114
N        0.86221509       1.00237732       0.21766209
H       -2.17960151       0.35366752      -1.13291166
H       -1.11060445       1.68412512      -1.57479929
H       -1.86643266       1.65094966       0.02862000
H       -1.84513342      -1.40913365       0.50247884
H       -0.95775755      -0.49345282       1.72085230
H       -0.32343807      -2.00391129       1.14517039
H        2.31813423      -1.79119435      -0.60498522
H        2.94971818       0.64185240       0.32831332
H        0.83151154       1.91793704       0.62747128
16
Frame=7 idx=011337 GeodesicLength=0.450449524233103 rxn_smarts="[C:1]([c:2]1[c:3]([C:4]([H:11])([H:12])[H:13])[c:5]([H:14])[c:6]([H:15])[n:7]1[H:16])([H:8])([H:9])[H:10]>>[C:1]([C:2]1([C:4]([H:11])([H:12])[H:13])[C-:3]=[C:5]([H:14])[C+:6]([H:15])[N:7]1[H:16])([H:8])([H:9])[H:10]"
C       -1.40984887       1.04143549      -0.75075712
C       -0.23880457       0.26201704      -0.22895552
C        0.21838374      -0.99368657      -0.71836256
C       -0.86156739      -1.12335492       0.82709509
C        1.63459747      -0.96142240      -0.47294189
C        1.97925667       0.23379392       0.09693470
N        0.86848407       1.00191085       0.22841730
H       -2.17918831       0.36594712      -1.11934322
H       -1.09602094       1.67966120      -1.57856180
H       -1.85229440       1.67275460       0.02526924
H       -1.83082764      -1.47438664       0.47938030
H       -1.03899284      -0.50088023       1.70789952
H       -0.30891065      -1.98523172       1.19130690
H        2.31338942      -1.79046859      -0.61291041
H        2.95839089       0.65108030       0.29444131
H        0.84395336       1.92083055       0.63108817
16
Frame=8 idx=011337 GeodesicLength=0.5128805655463757 rxn_smarts="[C:1]([c:2]1[c:3]([C:4]([H:11])([H:12])[H:13])[c:5]([H:14])[c:6]([H:15])[n:7]1[H:16])([H:8])([H:9])[H:10]>>[C:1]([C:2]1([C:4]([H:11])([H:12])[H:13])[C-:3]=[C:5]([H:14])[C+:6]([H:15])[N:7]1[H:16])([H:8])([H:9])[H:10]"
C       -1.40098449       1.05003481      -0.74618217
C       -0.23889545       0.26509190      -0.21237715
C        0.21685265      -0.98973883      -0.70548616
C       -0.87295663      -1.13683502       0.82919920
C        1.63332982      -0.95715472      -0.48340758
C        1.98493307       0.23987654       0.08318016
N        0.87505095       1.00136039       0.23953685
H       -2.17852589       0.37863020      -1.10506669
H       -1.08109274       1.67494696      -1.58185153
H       -1.83738697       1.69481233       0.02218437
H       -1.81297639      -1.54051302       0.45738330
H       -1.12136465      -0.51152712       1.69054872
H       -0.29757617      -1.96373058       1.23831793
H        2.30832360      -1.78995761      -0.61961007
H        2.96670547       0.66136899       0.25810624
H        0.85656382       1.92333480       0.63552460
16
Frame=9 idx=011337 GeodesicLength=0.5748834322784983 rxn_smarts="[C:1]([c:2]1[c:3]([C:4]([H:11])([H:12])[H:13])[c:5]([H:14])[c:6]([H:15])[n:7]1[H:16])([H:8])([H:9])[H:10]>>[C:1]([C:2]1([C:4]([H:11])([H:12])[H:13])[C-:3]=[C:5]([H:14])[C+:6]([H:15])[N:7]1[H:16])([H:8])([H:9])[H:10]"
C       -1.39207563       1.05870504      -0.74111304
C       -0.23898032       0.26826873      -0.19540523
C        0.21521750      -0.98563361      -0.69259772
C       -0.88421349      -1.15053547       0.83121087
C        1.63160685      -0.95296566      -0.49377133
C        1.99051720       0.24680477       0.06665431
N        0.88196278       1.00089698       0.25015676
H       -2.17790101       0.39160845      -1.08993799
H       -1.06648536       1.66998026      -1.58467510
H       -1.82189546       1.71691991       0.01953694
H       -1.79117771      -1.60708981       0.43745571
H       -1.20463655      -0.52478741       1.66836148
H       -0.28840118      -1.93886445       1.28617182
H        2.30286389      -1.78956571      -0.62566624
H        2.97413753       0.67062160       0.22363385
H        0.86946095       1.92563638       0.63998491
16
Frame=10 idx=011337 GeodesicLength=0.6365745153343982 rxn_smarts="[C:1]([c:2]1[c:3]([C:4]([H:11])([H:12])[H:13])[c:5]([H:14])[c:6]([H:15])[n:7]1[H:16])([H:8])([H:9])[H:10]>>[C:1]([C:2]1([C:4]([H:11])([H:12])[H:13])[C-:3]=[C:5]([H:14])[C+:6]([H:15])[N:7]1[H:16])([H:8])([H:9])[H:10]"
C       -1.38292943       1.06758468      -0.73545814
C       -0.23898753       0.27157012      -0.17787417
C        0.21358673      -0.98135455      -0.67948379
C       -0.89583974      -1.16438451       0.83285629
C        1.62945863      -0.94920700      -0.50304011
C        1.99591292       0.25449527       0.04825326
N        0.88927821       1.00042192       0.26075728
H       -2.17703363       0.40509626      -1.07428700
H       -1.05178237       1.66509240      -1.58673045
H       -1.80581943       1.73902766       0.01749531
H       -1.76535037      -1.67436732       0.41936129
H       -1.28821322      -0.54152977       1.64114916
H       -0.28311739      -1.91103223       1.33461130
H        2.29702761      -1.78959798      -0.62986494
H        2.98115447       0.68059177       0.18720003
H        0.88265452       1.92759327       0.64505466
16
Frame=11 idx=011337 GeodesicLength=0.69798264321955 rxn_smarts="[C:1]([c:2]1[c:3]([C:4]([H:11])([H:12])[H:13])[c:5]([H:14])[c:6]([H:15])[n:7]1[H:16])([H:8])([H:9])[H:10]>>[C:1]([C:2]1([C:4]([H:11])([H:12])[H:13])[C-:3]=[C:5]([H:14])[C+:6]([H:15])[N:7]1[H:16])([H:8])([H:9])[H:10]"
C       -1.37361158       1.07667599      -0.72913257
C       -0.23891593       0.27500404      -0.15985459
C        0.21191893      -0.97687232      -0.66625918
C       -0.90775419      -1.17838373       0.83405618
C        1.62688488      -0.94583818      -0.51141544
C        2.00102088       0.26296733       0.02776849
N        0.89703689       0.99995406       0.27109534
H       -2.17592287       0.41911449      -1.05814771
H       -1.03714908       1.66042557      -1.58787705
H       -1.78924281       1.76097688       0.01627079
H       -1.73529376      -1.74217020       0.40342120
H       -1.37160812      -0.56177413       1.60865733
H       -0.28197089      -1.88011771       1.38347847
H        2.29078061      -1.79010449      -0.63190972
H        2.98761333       0.69094468       0.14929208
H        0.89621371       1.92919772       0.65055638
16
Frame=12 idx=011337 GeodesicLength=0.759164500238153 rxn_smarts="[C:1]([c:2]1[c:3]([C:4]([H:11])([H:12])[H:13])[c:5]([H:14])[c:6]([H:15])[n:7]1[H:16])([H:8])([H:9])[H:10]>>[C:1]([C:2]1([C:4]([H:11])([H:12])[H:13])[C-:3]=[C:5]([H:14])[C+:6]([H:15])[N:7]1[H:16])([H:8])([H:9])[H:10]"
C       -1.36415887       1.08598738      -0.72205388
C       -0.23875165       0.27857525      -0.14140065
C        0.21017226      -0.97217115      -0.65300456
C       -0.91991709      -1.19252177       0.83474176
C        1.62389015      -0.94284567      -0.51900214
C        2.00565102       0.27218789       0.00516548
N        0.90529152       0.99949687       0.28097660
H       -2.17455561       0.43366652      -1.04155924
H       -1.02267552       1.65613473      -1.58797362
H       -1.77224592       1.78263233       0.01606942
H       -1.70078561      -1.81028822       0.39009091
H       -1.45433478      -0.58564338       1.57052943
H       -0.28540577      -1.84608100       1.43256343
H        2.28412225      -1.79108564      -0.63156942
H        2.99344905       0.70152732       0.11009524
H        0.91025457       1.93042856       0.65633124
16
Frame=13 idx=011337 GeodesicLength=0.8201577933077339 rxn_smarts="[C:1]([c:2]1[c:3]([C:4]([H:11])([H:12])[H:13])[c:5]([H:14])[c:6]([H:15])[n:7]1[H:16])([H:8])([H:9])[H:10]>>[C:1]([C:2]1([C:4]([H:11])([H:12])[H:13])[C-:3]=[C:5]([H:14])[C+:6]([H:15])[N:7]1[H:16])([H:8])([H:9])[H:10]"
C       -1.35470042       1.09546194      -0.71422850
C       -0.23851323       0.28228283      -0.12261375
C        0.20824510      -0.96730886      -0.63980849
C       -0.93194084      -1.20684778       0.83520537
C        1.62041015      -0.94004479      -0.52636362
C        2.00963389       0.28199192      -0.02003986
N        0.91400348       0.99911751       0.28999067
H       -2.17299984       0.44866387      -1.02460332
H       -1.00865552       1.65227615      -1.58703332
H       -1.75500705       1.80381703       0.01696208
H       -1.66163196      -1.87836860       0.38042171
H       -1.53639249      -0.61290485       1.52618031
H       -0.29299831      -1.80839627       1.48190798
H        2.27715948      -1.79216518      -0.63002179
H        2.99859102       0.71103075       0.07203490
H        0.92479656       1.93139434       0.66200963
16
Frame=14 idx=011337 GeodesicLength=0.8810560951067306 rxn_smarts="[C:1]([c:2]1[c:3]([C:4]([H:11])([H:12])[H:13])[c:5]([H:14])[c:6]([H:15])[n:7]1[H:16])([H:8])([H:9])[H:10]>>[C:1]([C:2]1([C:4]([H:11])([H:12])[H:13])[C-:3]=[C:5]([H:14])[C+:6]([H:15])[N:7]1[H:16])([H:8])([H:9])[H:10]"
C       -1.34521456       1.10519034      -0.70552259
C       -0.23815077       0.28614087      -0.10349148
C        0.20618127      -0.96226208      -0.62666369
C       -0.94415987      -1.22125033       0.83509525
C        1.61650914      -0.93767246      -0.53302182
C        2.01291607       0.29234403      -0.04722866
N        0.92326615       0.99874481       0.29830081
H       -2.17124632       0.46420060      -1.00731807
H       -0.99498632       1.64907758      -1.58483976
H       -1.73755749       1.82453375       0.01922230
H       -1.61748911      -1.94629030       0.37444628
H       -1.61673641      -0.64410349       1.47549202
H       -0.30634363      -1.76746108       1.53106984
H        2.26989151      -1.79360831      -0.62621112
H        3.00314556       0.72039939       0.03297612
H        0.93997476       1.93201669       0.66769455
16
Frame=15 idx=011337 GeodesicLength=0.9419321077972928 rxn_smarts="[C:1]([c:2]1[c:3]([C:4]([H:11])([H:12])[H:13])[c:5]([H:14])[c:6]([H:15])[n:7]1[H:16])([H:8])([H:9])[H:10]>>[C:1]([C:2]1([C:4]([H:11])([H:12])[H:13])[C-:3]=[C:5]([H:14])[C+:6]([H:15])[N:7]1[H:16])([H:8])([H:9])[H:10]"
C       -1.33573634       1.11515593      -0.69584399
C       -0.23763948       0.29011016      -0.08406878
C        0.20395311      -0.95706128      -0.61361519
C       -0.95649905      -1.23577540       0.83438922
C        1.61218900      -0.93570852      -0.53910343
C        2.01538207       0.30307974      -0.07632506
N        0.93308600       0.99831459       0.30582750
H       -2.16931282       0.48025520      -0.98971148
H       -0.98175213       1.64664705      -1.58126498
H       -1.71997791       1.84466115       0.02304766
H       -1.56815012      -2.01360665       0.37264034
H       -1.69493611      -0.67931401       1.41807041
H       -0.32585152      -1.72308817       1.57984350
H        2.26236291      -1.79532345      -0.62019369
H        3.00702376       0.72941439      -0.00698563
H        0.95585865       1.93223927       0.67329360
16
Frame=16 idx=011337 GeodesicLength=1.0028146057037473 rxn_smarts="[C:1]([c:2]1[c:3]([C:4]([H:11])([H:12])[H:13])[c:5]([H:14])[c:6]([H:15])[n:7]1[H:16])([H:8])([H:9])[H:10]>>[C:1]([C:2]1([C:4]([H:11])([H:12])[H:13])[C-:3]=[C:5]([H:14])[C+:6]([H:15])[N:7]1[H:16])([H:8])([H:9])[H:10]"
C       -1.32631588       1.12534803      -0.68512283
C       -0.23695053       0.29418445      -0.06440996
C        0.20155108      -0.95174164      -0.60070523
C       -0.96885008      -1.25043656       0.83313862
C        1.60745565      -0.93413372      -0.54474381
C        2.01699689       0.31396607      -0.10716097
N        0.94344444       0.99781864       0.31247510
H       -2.16722064       0.49680000      -0.97177811
H       -0.96907122       1.64508765      -1.57623677
H       -1.70236149       1.86410270       0.02860736
H       -1.51357456      -2.07972967       0.37581756
H       -1.77031661      -0.71884339       1.35341090
H       -0.35208814      -1.67515926       1.62784580
H        2.25460847      -1.79718274      -0.61219330
H        3.01022399       0.73783381      -0.04763250
H        0.97246864       1.93208563       0.67868813
