15
Frame=0 idx=007222 GeodesicLength=0.0 rxn_smarts="[O:1]([C:2]([C@@:3]1([H:11])[C:4]([H:12])([H:13])[C:5]([H:14])([H:15])[C:6]1=[O:7])([H:9])[H:10])[H:8]>>[O:1]([C:2]([C+:3]=[C:6]([C:5]([C:4]([H:11])([H:12])[H:13])([H:14])[H:15])[O-:7])([H:9])[H:10])[H:8]"
O        2.64301218      -0.10763108       0.83135239
C        1.59664104      -0.61122598       0.03122534
C        0.28538303      -0.41985581       0.63778769
C       -0.84819832       1.30611960      -0.13715728
C       -1.86062250       0.17296973      -0.15646447
C       -0.92058731      -0.98753092       0.09756331
O       -1.11205896      -2.17201607      -0.08318671
H        3.47569644      -0.26917675       0.38357957
H        1.61579634      -1.71444325      -0.04234006
H        1.67198065      -0.23034931      -0.99845585
H       -0.02463705       0.97563542       0.65097165
H       -1.15956243       2.23127036       0.34671587
H       -0.37583656       1.50733128      -1.09484049
H       -2.38418731       0.06612566      -1.10518291
H       -2.60281926       0.25277707       0.63843198
15
Frame=1 idx=007222 GeodesicLength=0.054611728041558574 rxn_smarts="[O:1]([C:2]([C@@:3]1([H:11])[C:4]([H:12])([H:13])[C:5]([H:14])([H:15])[C:6]1=[O:7])([H:9])[H:10])[H:8]>>[O:1]([C:2]([C+:3]=[C:6]([C:5]([C:4]([H:11])([H:12])[H:13])([H:14])[H:15])[O-:7])([H:9])[H:10])[H:8]"
O        2.64465251      -0.10714341       0.82423219
C        1.59618849      -0.61322661       0.02861903
C        0.28538182      -0.41533975       0.63469370
C       -0.84413487       1.30437373      -0.13293746
C       -1.85995030       0.17287946      -0.16165759
C       -0.92171306      -0.98747142       0.09822230
O       -1.11201423      -2.17325629      -0.07234160
H        3.47659910      -0.27405812       0.37714495
H        1.62004538      -1.71586847      -0.04631614
H        1.66436077      -0.23074682      -1.00122240
H       -0.02842506       0.98386069       0.68819162
H       -1.16891722       2.23296267       0.33521528
H       -0.36847436       1.50680308      -1.08910960
H       -2.37817283       0.06440427      -1.11313534
H       -2.60542613       0.25182700       0.63040106
15
Frame=2 idx=007222 GeodesicLength=0.10918537561284164 rxn_smarts="[O:1]([C:2]([C@@:3]1([H:11])[C:4]([H:12])([H:13])[C:5]([H:14])([H:15])[C:6]1=[O:7])([H:9])[H:10])[H:8]>>[O:1]([C:2]([C+:3]=[C:6]([C:5]([C:4]([H:11])([H:12])[H:13])([H:14])[H:15])[O-:7])([H:9])[H:10])[H:8]"
O        2.64615031      -0.10621464       0.81693523
C        1.59569666      -0.61528892       0.02605273
C        0.28533627      -0.41059733       0.63153221
C       -0.84004600       1.30268842      -0.12862080
C       -1.85922326       0.17285680      -0.16698221
C       -0.92283628      -0.98736665       0.09883659
O       -1.11195684      -2.17437941      -0.06138210
H        3.47739541      -0.27863688       0.37071870
H        1.62433545      -1.71735991      -0.04981574
H        1.65669795      -0.23160910      -1.00405394
H       -0.03252913       0.99135548       0.72484391
H       -1.17735793       2.23423945       0.32447998
H       -0.36163097       1.50661959      -1.08349661
H       -2.37201238       0.06274016      -1.12122416
H       -2.60801927       0.25095295       0.62217623
15
Frame=3 idx=007222 GeodesicLength=0.1637415151415782 rxn_smarts="[O:1]([C:2]([C@@:3]1([H:11])[C:4]([H:12])([H:13])[C:5]([H:14])([H:15])[C:6]1=[O:7])([H:9])[H:10])[H:8]>>[O:1]([C:2]([C+:3]=[C:6]([C:5]([C:4]([H:11])([H:12])[H:13])([H:14])[H:15])[O-:7])([H:9])[H:10])[H:8]"
O        2.64751571      -0.10489865       0.80948607
C        1.59516905      -0.61740612       0.02352914
C        0.28525143      -0.40564400       0.62830826
C       -0.83595091       1.30106435      -0.12425274
C       -1.85844559       0.17289871      -0.17242394
C       -0.92394971      -0.98721128       0.09939256
O       -1.11188651      -2.17537644      -0.05031834
H        3.47809300      -0.28293806       0.36431774
H        1.62866739      -1.71890693      -0.05289206
H        1.64900526      -0.23288790      -1.00693289
H       -0.03691576       0.99814504       0.76097575
H       -1.18496229       2.23515294       0.31446418
H       -0.35527088       1.50673579      -1.07803096
H       -2.36574234       0.06112000      -1.12941496
H       -2.61057785       0.25015255       0.61379219
15
Frame=4 idx=007222 GeodesicLength=0.21829003037687447 rxn_smarts="[O:1]([C:2]([C@@:3]1([H:11])[C:4]([H:12])([H:13])[C:5]([H:14])([H:15])[C:6]1=[O:7])([H:9])[H:10])[H:8]>>[O:1]([C:2]([C+:3]=[C:6]([C:5]([C:4]([H:11])([H:12])[H:13])([H:14])[H:15])[O-:7])([H:9])[H:10])[H:8]"
O        2.64875663      -0.10324179       0.80190774
C        1.59460835      -0.61957219       0.02105084
C        0.28513135      -0.40049561       0.62502616
C       -0.83186469       1.29950079      -0.11987355
C       -1.85762186       0.17300247      -0.17796962
C       -0.92504740      -0.98700255       0.09987876
O       -1.11180172      -2.17624116      -0.03916207
H        3.47869945      -0.28698126       0.35795777
H        1.63304265      -1.72049994      -0.05559359
H        1.64129428      -0.23453960      -1.00984310
H       -0.04155657       1.00424954       0.79662938
H       -1.19179692       2.23575105       0.30512255
H       -0.34935917       1.50711124      -1.07273809
H       -2.35939906       0.05953245      -1.13767692
H       -2.61308533       0.24942656       0.60528375
15
Frame=5 idx=007222 GeodesicLength=0.27285078632651527 rxn_smarts="[O:1]([C:2]([C@@:3]1([H:11])[C:4]([H:12])([H:13])[C:5]([H:14])([H:15])[C:6]1=[O:7])([H:9])[H:10])[H:8]>>[O:1]([C:2]([C+:3]=[C:6]([C:5]([C:4]([H:11])([H:12])[H:13])([H:14])[H:15])[O-:7])([H:9])[H:10])[H:8]"
O        2.64988167      -0.10128811       0.79421788
C        1.59401716      -0.62178033       0.01862071
C        0.28498025      -0.39516489       0.62169081
C       -0.82779816       1.29799726      -0.11551885
C       -1.85675492       0.17316474      -0.18360866
C       -0.92612449      -0.98673706       0.10029050
O       -1.11170338      -2.17696509      -0.02791932
H        3.47921996      -0.29078964       0.35164928
H        1.63746134      -1.72212860      -0.05796507
H        1.63357496      -0.23652426      -1.01276980
H       -0.04642012       1.00968964       0.83184816
H       -1.19793434       2.23607319       0.29641303
H       -0.34386592       1.50771301      -1.06763825
H       -2.35300752       0.05796650      -1.14598516
H       -2.61552650       0.24877364       0.59667474
15
Frame=6 idx=007222 GeodesicLength=0.3274193683548162 rxn_smarts="[O:1]([C:2]([C@@:3]1([H:11])[C:4]([H:12])([H:13])[C:5]([H:14])([H:15])[C:6]1=[O:7])([H:9])[H:10])[H:8]>>[O:1]([C:2]([C+:3]=[C:6]([C:5]([C:4]([H:11])([H:12])[H:13])([H:14])[H:15])[O-:7])([H:9])[H:10])[H:8]"
O        2.65089663      -0.09907309       0.78643522
C        1.59339653      -0.62402494       0.01624130
C        0.28480069      -0.38966462       0.61830573
C       -0.82376087       1.29655168      -0.11121988
C       -1.85584940       0.17338320      -0.18933055
C       -0.92717760      -0.98641437       0.10062038
O       -1.11158993      -2.17754444      -0.01659950
H        3.47966067      -0.29437653       0.34540336
H        1.64192434      -1.72378388      -0.06004527
H        1.62585577      -0.23880672      -1.01569954
H       -0.05148326       1.01447895       0.86666619
H       -1.20342391       2.23615594       0.28829659
H       -0.33876064       1.50851028      -1.06275002
H       -2.34659792       0.05641267      -1.15431785
H       -2.61789111       0.24819587       0.58799383
15
Frame=7 idx=007222 GeodesicLength=0.38201600887187326 rxn_smarts="[O:1]([C:2]([C@@:3]1([H:11])[C:4]([H:12])([H:13])[C:5]([H:14])([H:15])[C:6]1=[O:7])([H:9])[H:10])[H:8]>>[O:1]([C:2]([C+:3]=[C:6]([C:5]([C:4]([H:11])([H:12])[H:13])([H:14])[H:15])[O-:7])([H:9])[H:10])[H:8]"
O        2.65180865      -0.09662792       0.77857006
C        1.59274780      -0.62629871       0.01391404
C        0.28459563      -0.38400230       0.61487461
C       -0.81975886       1.29516374      -0.10700519
C       -1.85490787       0.17365539      -0.19512836
C       -0.92820449      -0.98603216       0.10086680
O       -1.11146129      -2.17797283      -0.00520389
H        3.48002652      -0.29775900       0.33922421
H        1.64643081      -1.72545522      -0.06186822
H        1.61814304      -0.24135630      -1.01862267
H       -0.05672873       1.01862224       0.90113327
H       -1.20831843       2.23603055       0.28073440
H       -0.33401406       1.50947648      -1.05808769
H       -2.34018842       0.05486198      -1.16265886
H       -2.62017028       0.24769404       0.57925750
15
Frame=8 idx=007222 GeodesicLength=0.43662767347127884 rxn_smarts="[O:1]([C:2]([C@@:3]1([H:11])[C:4]([H:12])([H:13])[C:5]([H:14])([H:15])[C:6]1=[O:7])([H:9])[H:10])[H:8]>>[O:1]([C:2]([C+:3]=[C:6]([C:5]([C:4]([H:11])([H:12])[H:13])([H:14])[H:15])[O-:7])([H:9])[H:10])[H:8]"
O        2.65262279      -0.09398288       0.77063937
C        1.59207207      -0.62859700       0.01164203
C        0.28436753      -0.37819046       0.61140090
C       -0.81579652       1.29383118      -0.10289846
C       -1.85393399       0.17397943      -0.20099108
C       -0.92920290      -0.98559098       0.10102624
O       -1.11131676      -2.17824651       0.00625546
H        3.48032270      -0.30094950       0.33312126
H        1.65098203      -1.72713457      -0.06346806
H        1.61044456      -0.24414259      -1.02152644
H       -0.06213498       1.02213083       0.93527724
H       -1.21266603       2.23572734       0.27368354
H       -0.32960206       1.51058759      -1.05366540
H       -2.33380373       0.05330794      -1.17098882
H       -2.62235470       0.24727019       0.57049220
15
Frame=9 idx=007222 GeodesicLength=0.4912476320299877 rxn_smarts="[O:1]([C:2]([C@@:3]1([H:11])[C:4]([H:12])([H:13])[C:5]([H:14])([H:15])[C:6]1=[O:7])([H:9])[H:10])[H:8]>>[O:1]([C:2]([C+:3]=[C:6]([C:5]([C:4]([H:11])([H:12])[H:13])([H:14])[H:15])[O-:7])([H:9])[H:10])[H:8]"
O        2.65334567      -0.09116971       0.76265740
C        1.59137096      -0.63091370       0.00942910
C        0.28411888      -0.37223751       0.60788973
C       -0.81187928       1.29255384      -0.09892406
C       -1.85293082       0.17435226      -0.20691132
C       -0.93016998      -0.98508842       0.10110097
O       -1.11115645      -2.17835793       0.01777447
H        3.48055189      -0.30396597       0.32710095
H        1.65557682      -1.72881236      -0.06487708
H        1.60276791      -0.24713521      -1.02439830
H       -0.06767426       1.02501546       0.96912202
H       -1.21651628       2.23526781       0.26711315
H       -0.32550751       1.51182648      -1.04949759
H       -2.32745973       0.05174123      -1.17929309
H       -2.62443783       0.24692375       0.56171363
15
Frame=10 idx=007222 GeodesicLength=0.5458865161284724 rxn_smarts="[O:1]([C:2]([C@@:3]1([H:11])[C:4]([H:12])([H:13])[C:5]([H:14])([H:15])[C:6]1=[O:7])([H:9])[H:10])[H:8]>>[O:1]([C:2]([C+:3]=[C:6]([C:5]([C:4]([H:11])([H:12])[H:13])([H:14])[H:15])[O-:7])([H:9])[H:10])[H:8]"
O        2.65398099      -0.08820746       0.75463500
C        1.59064481      -0.63324238       0.00727492
C        0.28385112      -0.36614950       0.60433999
C       -0.80800629       1.29132927      -0.09510306
C       -1.85190247       0.17477200      -0.21288061
C       -0.93110602      -0.98452653       0.10108767
O       -1.11097958      -2.17830555       0.02934500
H        3.48071899      -0.30681904       0.32117212
H        1.66021583      -1.73047944      -0.06612223
H        1.59511957      -0.25031008      -1.02723246
H       -0.07333896       1.02727814       1.00271319
H       -1.21989870       2.23467610       0.26098053
H       -0.32170859       1.51316961      -1.04559680
H       -2.32117849       0.05015724      -1.18755612
H       -2.62641218       0.24665762       0.55294286
15
Frame=11 idx=007222 GeodesicLength=0.6005484747383504 rxn_smarts="[O:1]([C:2]([C@@:3]1([H:11])[C:4]([H:12])([H:13])[C:5]([H:14])([H:15])[C:6]1=[O:7])([H:9])[H:10])[H:8]>>[O:1]([C:2]([C+:3]=[C:6]([C:5]([C:4]([H:11])([H:12])[H:13])([H:14])[H:15])[O-:7])([H:9])[H:10])[H:8]"
O        2.65453388      -0.08511890       0.74658320
C        1.58989375      -0.63557610       0.00518175
C        0.28356545      -0.35993003       0.60075427
C       -0.80418210       1.29015714      -0.09145731
C       -1.85085314       0.17523651      -0.21889456
C       -0.93200970      -0.98390450       0.10098664
O       -1.11078376      -2.17808609       0.04096818
H        3.48082956      -0.30952180       0.31534000
H        1.66489756      -1.73212600      -0.06723055
H        1.58750489      -0.25364097      -1.03001991
H       -0.07911109       1.02891424       1.03608303
H       -1.22284503       2.23397227       0.25525605
H       -0.31818610       1.51460205      -1.04197650
H       -2.31497805       0.04854698      -1.19576910
H       -2.62827614       0.24647520       0.54419479
15
Frame=12 idx=007222 GeodesicLength=0.6552158594869998 rxn_smarts="[O:1]([C:2]([C@@:3]1([H:11])[C:4]([H:12])([H:13])[C:5]([H:14])([H:15])[C:6]1=[O:7])([H:9])[H:10])[H:8]>>[O:1]([C:2]([C+:3]=[C:6]([C:5]([C:4]([H:11])([H:12])[H:13])([H:14])[H:15])[O-:7])([H:9])[H:10])[H:8]"
O        2.65500890      -0.08192456       0.73851482
C        1.58911864      -0.63790963       0.00315146
C        0.28326366      -0.35358501       0.59713412
C       -0.80040638       1.28903642      -0.08800381
C       -1.84978620       0.17574398      -0.22494495
C       -0.93288046      -0.98322263       0.10079880
O       -1.11056756      -2.17769593       0.05263671
H        3.48088737      -0.31208702       0.30961208
H        1.66962178      -1.73374392      -0.06822702
H        1.57993064      -0.25710470      -1.03275258
H       -0.08497652       1.02992641       1.06925632
H       -1.22538774       2.23317482       0.24990447
H       -0.31492591       1.51610889      -1.03864857
H       -2.30887546       0.04690550      -1.20391859
H       -2.63002477       0.24637737       0.53548675
15
Frame=13 idx=007222 GeodesicLength=0.7098860611268106 rxn_smarts="[O:1]([C:2]([C@@:3]1([H:11])[C:4]([H:12])([H:13])[C:5]([H:14])([H:15])[C:6]1=[O:7])([H:9])[H:10])[H:8]>>[O:1]([C:2]([C+:3]=[C:6]([C:5]([C:4]([H:11])([H:12])[H:13])([H:14])[H:15])[O-:7])([H:9])[H:10])[H:8]"
O        2.65541091      -0.07864392       0.73044081
C        1.58832083      -0.64023619       0.00118537
C        0.28294722      -0.34711621       0.59347994
C       -0.79667984       1.28796722      -0.08476112
C       -1.84870591       0.17629225      -0.23102501
C       -0.93371733      -0.98248031       0.10052592
O       -1.11032960      -2.17713025       0.06434630
H        3.48089668      -0.31453022       0.30399813
H        1.67438727      -1.73532399      -0.06913615
H        1.57240439      -0.26067742      -1.03542383
H       -0.09091975       1.03031190       1.10226207
H       -1.22755608       2.23229917       0.24489295
H       -0.31191696       1.51767615      -1.03562672
H       -2.30288732       0.04522635      -1.21199314
H       -2.63165451       0.24636547       0.52683448
15
Frame=14 idx=007222 GeodesicLength=0.7645573386300695 rxn_smarts="[O:1]([C:2]([C@@:3]1([H:11])[C:4]([H:12])([H:13])[C:5]([H:14])([H:15])[C:6]1=[O:7])([H:9])[H:10])[H:8]>>[O:1]([C:2]([C+:3]=[C:6]([C:5]([C:4]([H:11])([H:12])[H:13])([H:14])[H:15])[O-:7])([H:9])[H:10])[H:8]"
O        2.65574447      -0.07529466       0.72237543
C        1.58750211      -0.64254878      -0.00071678
C        0.28261786      -0.34052472       0.58978888
C       -0.79300178       1.28695010      -0.08174912
C       -1.84761705       0.17688019      -0.23712632
C       -0.93451871      -0.98167720       0.10016757
O       -1.11006736      -2.17638496       0.07609248
H        3.48086211      -0.31686730       0.29851169
H        1.67919359      -1.73685748      -0.06998275
H        1.56493604      -0.26433468      -1.03802894
H       -0.09693160       1.03006260       1.13513079
H       -1.22937451       2.23136079       0.24018601
H       -0.30915080       1.51928982      -1.03292821
H       -2.29703418       0.04350400      -1.21997890
H       -2.63316020       0.24644228       0.51825817
15
Frame=15 idx=007222 GeodesicLength=0.8192065865654455 rxn_smarts="[O:1]([C:2]([C@@:3]1([H:11])[C:4]([H:12])([H:13])[C:5]([H:14])([H:15])[C:6]1=[O:7])([H:9])[H:10])[H:8]>>[O:1]([C:2]([C+:3]=[C:6]([C:5]([C:4]([H:11])([H:12])[H:13])([H:14])[H:15])[O-:7])([H:9])[H:10])[H:8]"
O        2.65601404      -0.07189387       0.71433063
C        1.58666298      -0.64484197      -0.00255279
C        0.28227656      -0.33381184       0.58606152
C       -0.78937226       1.28598531      -0.07898248
C       -1.84652375       0.17750591      -0.24324325
C       -0.93528401      -0.98081319       0.09972612
O       -1.10977768      -2.17545731       0.08787143
H        3.48078773      -0.31911036       0.29316062
H        1.68403931      -1.73833680      -0.07078740
H        1.55753187      -0.26805560      -1.04056097
H       -0.10299671       1.02917350       1.16788060
H       -1.23086680       2.23037303       0.23575568
H       -0.30661858       1.52094039      -1.03056521
H       -2.29133183       0.04173278      -1.22786687
H       -2.63454086       0.24661003       0.50977237
15
Frame=16 idx=007222 GeodesicLength=0.8738264969192784 rxn_smarts="[O:1]([C:2]([C@@:3]1([H:11])[C:4]([H:12])([H:13])[C:5]([H:14])([H:15])[C:6]1=[O:7])([H:9])[H:10])[H:8]>>[O:1]([C:2]([C+:3]=[C:6]([C:5]([C:4]([H:11])([H:12])[H:13])([H:14])[H:15])[O-:7])([H:9])[H:10])[H:8]"
O        2.65622393      -0.06845650       0.70631894
C        1.58580502      -0.64710939      -0.00432255
C        0.28192465      -0.32697706       0.58229602
C       -0.78579037       1.28507391      -0.07647863
C       -1.84543080       0.17816828      -0.24936862
C       -0.93601229      -0.97988730       0.09920316
O       -1.10945786      -2.17434299       0.09967968
H        3.48067802      -0.32127391       0.28795727
H        1.68892312      -1.73975369      -0.07157158
H        1.55020058      -0.27181867      -1.04301592
H       -0.10910415       1.02763361       1.20053765
H       -1.23205427       2.22934849       0.23157030
H       -0.30431418       1.52261686      -1.02855353
H       -2.28579781       0.03990724      -1.23564577
H       -2.63579358       0.24687112       0.50139358
