14
Frame=0 idx=000570 GeodesicLength=0.0 rxn_smarts="[C:1]1([H:7])([H:8])[C@@:2]2([H:9])[C:3]([H:10])([H:11])[C:4]([H:12])([H:13])[O:5][C@@:6]12[H:14]>>[C:1]1([H:7])([H:8])[C@@:2]2([H:9])[C:3]([H:10])([H:11])[C-:4]([H:12])[O+:5]=[C:6]12.[H:13][H:14]"
C        1.74341796       0.12968831      -0.39603367
C        0.62287514       0.32066060       0.60174942
C       -0.74256039       0.92897263       0.30213269
C       -1.28685741      -0.14245328      -0.61608434
O       -0.32348207      -0.76485285      -1.20104678
C        0.69980069      -0.93548904      -0.23076878
H        1.74497335       0.67993901      -1.32940078
H        2.72678960      -0.03925421       0.02409686
H        0.90355313       0.23478202       1.64340651
H       -0.74411700       1.89894962      -0.21111874
H       -1.33084034       1.04252741       1.21206448
H       -2.25761448      -0.17006301      -1.09875812
H       -1.28752724      -1.46125996       0.64573739
H       -0.46841089      -1.72214720       0.65402385
14
Frame=1 idx=000570 GeodesicLength=0.06919653643967451 rxn_smarts="[C:1]1([H:7])([H:8])[C@@:2]2([H:9])[C:3]([H:10])([H:11])[C:4]([H:12])([H:13])[O:5][C@@:6]12[H:14]>>[C:1]1([H:7])([H:8])[C@@:2]2([H:9])[C:3]([H:10])([H:11])[C-:4]([H:12])[O+:5]=[C:6]12.[H:13][H:14]"
C        1.74062332       0.12951538      -0.39592168
C        0.62378242       0.32124185       0.60430931
C       -0.74064004       0.92941983       0.30093645
C       -1.28994971      -0.14639165      -0.60949037
O       -0.32350622      -0.76519131      -1.20001775
C        0.70096347      -0.93905194      -0.22410087
H        1.73518387       0.68379957      -1.32700934
H        2.72642684      -0.03864955       0.01878853
H        0.90565062       0.24242709       1.64619905
H       -0.73908592       1.89761229      -0.21509463
H       -1.33036558       1.04624749       1.20983514
H       -2.25460970      -0.15717318      -1.10524863
H       -1.29579306      -1.46808195       0.63977564
H       -0.45868032      -1.73572394       0.65703915
14
Frame=2 idx=000570 GeodesicLength=0.13839434073349055 rxn_smarts="[C:1]1([H:7])([H:8])[C@@:2]2([H:9])[C:3]([H:10])([H:11])[C:4]([H:12])([H:13])[O:5][C@@:6]12[H:14]>>[C:1]1([H:7])([H:8])[C@@:2]2([H:9])[C:3]([H:10])([H:11])[C-:4]([H:12])[O+:5]=[C:6]12.[H:13][H:14]"
C        1.73780710       0.12934846      -0.39579651
C        0.62466123       0.32185430       0.60686049
C       -0.73874356       0.92987839       0.29971101
C       -1.29306293      -0.15023259      -0.60295806
O       -0.32357938      -0.76552983      -1.19897427
C        0.70211947      -0.94255750      -0.21743421
H        1.72546127       0.68754518      -1.32460399
H        2.72600572      -0.03804716       0.01349574
H        0.90769977       0.25011271       1.64894161
H       -0.73407712       1.89628936      -0.21905629
H       -1.32990982       1.04998842       1.20756532
H       -2.25136352      -0.14438821      -1.11138594
H       -1.30444233      -1.47475070       0.63367680
H       -0.44857591      -1.74951083       0.65995830
14
Frame=3 idx=000570 GeodesicLength=0.20758513016485186 rxn_smarts="[C:1]1([H:7])([H:8])[C@@:2]2([H:9])[C:3]([H:10])([H:11])[C:4]([H:12])([H:13])[O:5][C@@:6]12[H:14]>>[C:1]1([H:7])([H:8])[C@@:2]2([H:9])[C:3]([H:10])([H:11])[C-:4]([H:12])[O+:5]=[C:6]12.[H:13][H:14]"
C        1.73496568       0.12919120      -0.39565589
C        0.62551140       0.32249519       0.60940568
C       -0.73686489       0.93034929       0.29845732
C       -1.29619039      -0.15396981      -0.59648842
O       -0.32370103      -0.76587541      -1.19790880
C        0.70326819      -0.94600582      -0.21076427
H        1.71579620       0.69118531      -1.32218088
H        2.72552256      -0.03744579       0.00821414
H        0.90970058       0.25783798       1.65163395
H       -0.72907865       1.89498205      -0.22300309
H       -1.32946810       1.05375336       1.20525153
H       -2.24788465      -0.13172536      -1.11717761
H       -1.31351047      -1.48124053       0.62744355
H       -0.43806642      -1.76353167       0.66277279
14
Frame=4 idx=000570 GeodesicLength=0.27678879958059005 rxn_smarts="[C:1]1([H:7])([H:8])[C@@:2]2([H:9])[C:3]([H:10])([H:11])[C:4]([H:12])([H:13])[O:5][C@@:6]12[H:14]>>[C:1]1([H:7])([H:8])[C@@:2]2([H:9])[C:3]([H:10])([H:11])[C-:4]([H:12])[O+:5]=[C:6]12.[H:13][H:14]"
C        1.73210014       0.12904167      -0.39550205
C        0.62633558       0.32316430       0.61195217
C       -0.73500709       0.93083317       0.29718261
C       -1.29933126      -0.15760022      -0.59008662
O       -0.32386995      -0.76624577      -1.19681914
C        0.70441615      -0.94940206      -0.20408395
H        1.70617602       0.69471988      -1.31974742
H        2.72498536      -0.03684849       0.00293491
H        0.91166372       0.26561424       1.65428683
H       -0.72409479       1.89369274      -0.22692785
H       -1.32904575       1.05754427       1.20290402
H       -2.24418250      -0.11917214      -1.12265499
H       -1.32304008      -1.48754183       0.62106221
H       -0.42710554      -1.77779978       0.66549927
14
Frame=5 idx=000570 GeodesicLength=0.34597756787484435 rxn_smarts="[C:1]1([H:7])([H:8])[C@@:2]2([H:9])[C:3]([H:10])([H:11])[C:4]([H:12])([H:13])[O:5][C@@:6]12[H:14]>>[C:1]1([H:7])([H:8])[C@@:2]2([H:9])[C:3]([H:10])([H:11])[C-:4]([H:12])[O+:5]=[C:6]12.[H:13][H:14]"
C        1.72921162       0.12890420      -0.39533158
C        0.62713421       0.32386251       0.61449383
C       -0.73315992       0.93132903       0.29588376
C       -1.30247233      -0.16110902      -0.58376106
O       -0.32408196      -0.76663860      -1.19569828
C        0.70555893      -0.95273742      -0.19739211
H        1.69661088       0.69815097      -1.31729822
H        2.72438835      -0.03625093      -0.00233764
H        0.91358197       0.27343255       1.65688705
H       -0.71910908       1.89242153      -0.23082460
H       -1.32863529       1.06134827       1.20051264
H       -2.24028284      -0.10677233      -1.12778553
H       -1.33308526      -1.49362593       0.61450653
H       -0.41565928      -1.79231483       0.66814520
14
Frame=6 idx=000570 GeodesicLength=0.415173722818507 rxn_smarts="[C:1]1([H:7])([H:8])[C@@:2]2([H:9])[C:3]([H:10])([H:11])[C:4]([H:12])([H:13])[O:5][C@@:6]12[H:14]>>[C:1]1([H:7])([H:8])[C@@:2]2([H:9])[C:3]([H:10])([H:11])[C-:4]([H:12])[O+:5]=[C:6]12.[H:13][H:14]"
C        1.72630345       0.12877707      -0.39514393
C        0.62790958       0.32458884       0.61703837
C       -0.73132593       0.93184511       0.29456571
C       -1.30561560      -0.16448912      -0.57751807
O       -0.32433888      -0.76706733      -1.19455051
C        0.70670402      -0.95601778      -0.19068921
H        1.68709641       0.70147602      -1.31484207
H        2.72374012      -0.03565373      -0.00759994
H        0.91546064       0.28129146       1.65944886
H       -0.71412729       1.89118077      -0.23468983
H       -1.32824059       1.06517676       1.19808678
H       -2.23620738      -0.09453582      -1.13259557
H       -1.34368828      -1.49945887       0.60778900
H       -0.40367028      -1.80711339       0.67070042
14
Frame=7 idx=000570 GeodesicLength=0.48436948888407005 rxn_smarts="[C:1]1([H:7])([H:8])[C@@:2]2([H:9])[C:3]([H:10])([H:11])[C:4]([H:12])([H:13])[O:5][C@@:6]12[H:14]>>[C:1]1([H:7])([H:8])[C@@:2]2([H:9])[C:3]([H:10])([H:11])[C-:4]([H:12])[O+:5]=[C:6]12.[H:13][H:14]"
C        1.72337396       0.12866230      -0.39493877
C        0.62866220       0.32534208       0.61958676
C       -0.72950098       0.93238000       0.29323097
C       -1.30875516      -0.16773434      -0.57136053
O       -0.32464031      -0.76754324      -1.19336694
C        0.70785180      -0.95924180      -0.18397039
H        1.67762718       0.70469517      -1.31238042
H        2.72303902      -0.03505086      -0.01285539
H        0.91730053       0.28919061       1.66197043
H       -0.70914220       1.88996971      -0.23851769
H       -1.32785928       1.06902404       1.19562627
H       -2.23196694      -0.08246648      -1.13709691
H       -1.35490720      -1.50501405       0.60089764
H       -0.39108260      -1.82221315       0.67317498
14
Frame=8 idx=000570 GeodesicLength=0.5535650168662303 rxn_smarts="[C:1]1([H:7])([H:8])[C@@:2]2([H:9])[C:3]([H:10])([H:11])[C:4]([H:12])([H:13])[O:5][C@@:6]12[H:14]>>[C:1]1([H:7])([H:8])[C@@:2]2([H:9])[C:3]([H:10])([H:11])[C-:4]([H:12])[O+:5]=[C:6]12.[H:13][H:14]"
C        1.72042189       0.12856110      -0.39471625
C        0.62939282       0.32612086       0.62214191
C       -0.72768299       0.93293393       0.29188316
C       -1.31188768      -0.17083882      -0.56529202
O       -0.32498720      -0.76808091      -1.19214001
C        0.70900450      -0.96241028      -0.17723112
H        1.66819591       0.70780714      -1.30991739
H        2.72228558      -0.03443686      -0.01810702
H        0.91910402       0.29712966       1.66445400
H       -0.70415049       1.88879031      -0.24230214
H       -1.32749089       1.07288754       1.19313400
H       -2.22757166      -0.07056314      -1.14130988
H       -1.36680430      -1.51026118       0.59382464
H       -0.37782952      -1.83763936       0.67557813
14
Frame=9 idx=000570 GeodesicLength=0.6227602362759427 rxn_smarts="[C:1]1([H:7])([H:8])[C@@:2]2([H:9])[C:3]([H:10])([H:11])[C:4]([H:12])([H:13])[O:5][C@@:6]12[H:14]>>[C:1]1([H:7])([H:8])[C@@:2]2([H:9])[C:3]([H:10])([H:11])[C-:4]([H:12])[O+:5]=[C:6]12.[H:13][H:14]"
C        1.71744525       0.12847484      -0.39447673
C        0.63010183       0.32692341       0.62470711
C       -0.72587024       0.93350682       0.29052627
C       -1.31501054      -0.17379703      -0.55931577
O       -0.32538143      -0.76869704      -1.19086069
C        0.71016444      -0.96552430      -0.17046644
H        1.65879356       0.71080995      -1.30745768
H        2.72147980      -0.03380509      -0.02335850
H        0.92087338       0.30510796       1.66690207
H       -0.69914918       1.88764420      -0.24603688
H       -1.32713516       1.07676459       1.19061327
H       -2.22302828      -0.05882059      -1.14525895
H       -1.37944877      -1.51516559       0.58656388
H       -0.36383466      -1.85342213       0.67791903
14
Frame=10 idx=000570 GeodesicLength=0.6919552409267796 rxn_smarts="[C:1]1([H:7])([H:8])[C@@:2]2([H:9])[C:3]([H:10])([H:11])[C:4]([H:12])([H:13])[O:5][C@@:6]12[H:14]>>[C:1]1([H:7])([H:8])[C@@:2]2([H:9])[C:3]([H:10])([H:11])[C-:4]([H:12])[O+:5]=[C:6]12.[H:13][H:14]"
C        1.71444104       0.12840498      -0.39422095
C        0.63078926       0.32774764       0.62728597
C       -0.72406144       0.93409800       0.28916479
C       -1.31812184      -0.17660358      -0.55343500
O       -0.32582583      -0.76941103      -1.18951805
C        0.71133393      -0.96858516      -0.16367062
H        1.64940900       0.71370059      -1.30500681
H        2.72062100      -0.03314794      -0.02861457
H        0.92261096       0.31312505       1.66931731
H       -0.69413572       1.88653262      -0.24971480
H       -1.32679223       1.08065174       1.18806801
H       -2.21833947      -0.04722848      -1.14897270
H       -1.39291865      -1.51968926       0.57910828
H       -0.34901002      -1.86959517       0.68020914
14
Frame=11 idx=000570 GeodesicLength=0.7611500523132387 rxn_smarts="[C:1]1([H:7])([H:8])[C@@:2]2([H:9])[C:3]([H:10])([H:11])[C:4]([H:12])([H:13])[O:5][C@@:6]12[H:14]>>[C:1]1([H:7])([H:8])[C@@:2]2([H:9])[C:3]([H:10])([H:11])[C-:4]([H:12])[O+:5]=[C:6]12.[H:13][H:14]"
C        1.71140526       0.12835299      -0.39394994
C        0.63145468       0.32859103       0.62988255
C       -0.72225562       0.93470641       0.28780368
C       -1.32122030      -0.17925289      -0.54765324
O       -0.32632435      -0.77024517      -1.18809916
C        0.71251524      -0.97159451      -0.15683709
H        1.64002880       0.71647505      -1.30257099
H        2.71970778      -0.03245663      -0.03388098
H        0.92431907       0.32118043       1.67170265
H       -0.68910773       1.88545659      -0.25332806
H       -1.32646260       1.08454509       1.18550261
H       -2.21350379      -0.03577218      -1.15248330
H       -1.40730214      -1.52378929       0.57144988
H       -0.33325432      -1.88619693       0.68246140
14
Frame=12 idx=000570 GeodesicLength=0.8303445995323737 rxn_smarts="[C:1]1([H:7])([H:8])[C@@:2]2([H:9])[C:3]([H:10])([H:11])[C:4]([H:12])([H:13])[O:5][C@@:6]12[H:14]>>[C:1]1([H:7])([H:8])[C@@:2]2([H:9])[C:3]([H:10])([H:11])[C-:4]([H:12])[O+:5]=[C:6]12.[H:13][H:14]"
C        1.70833276       0.12832036      -0.39366502
C        0.63209719       0.32945067       0.63250141
C       -0.72045223       0.93533058       0.28644844
C       -1.32430533      -0.18173884      -0.54197453
O       -0.32688211      -0.77122507      -1.18658869
C        0.71371053      -0.97455429      -0.14995825
H        1.63063710       0.71912785      -1.30015731
H        2.71873791      -0.03172129      -0.03916458
H        0.92599989       0.32927359       1.67406133
H       -0.68406305       1.88441705      -0.25686774
H       -1.32614727       1.08844005       1.18292203
H       -2.20851537      -0.02443293      -1.15582653
H       -1.42269936      -1.52741691       0.56357907
H       -0.31645066      -1.90327082       0.68469037
14
Frame=13 idx=000570 GeodesicLength=0.8995390009056212 rxn_smarts="[C:1]1([H:7])([H:8])[C@@:2]2([H:9])[C:3]([H:10])([H:11])[C:4]([H:12])([H:13])[O:5][C@@:6]12[H:14]>>[C:1]1([H:7])([H:8])[C@@:2]2([H:9])[C:3]([H:10])([H:11])[C-:4]([H:12])[O+:5]=[C:6]12.[H:13][H:14]"
C        1.70521701       0.12830842      -0.39336774
C        0.63271527       0.33032316       0.63514776
C       -0.71865115       0.93596869       0.28510523
C       -1.32737709      -0.18405457      -0.53640362
O       -0.32750566      -0.77238018      -1.18496851
C        0.71492179      -0.97746684      -0.14302520
H        1.62121511       0.72165183      -1.29777378
H        2.71770811      -0.03093094      -0.04447351
H        0.92765542       0.33740395       1.67639704
H       -0.67899957       1.88341490      -0.26032367
H       -1.32584783       1.09233140       1.18033185
H       -2.20336345      -0.01318773      -1.15904204
H       -1.43922434      -1.53051630       0.55548393
H       -0.29846361      -1.92086579       0.68691228
14
Frame=14 idx=000570 GeodesicLength=0.9687336221161013 rxn_smarts="[C:1]1([H:7])([H:8])[C@@:2]2([H:9])[C:3]([H:10])([H:11])[C:4]([H:12])([H:13])[O:5][C@@:6]12[H:14]>>[C:1]1([H:7])([H:8])[C@@:2]2([H:9])[C:3]([H:10])([H:11])[C-:4]([H:12])[O+:5]=[C:6]12.[H:13][H:14]"
C        1.70205000       0.12831830      -0.39305975
C        0.63330669       0.33120459       0.63782754
C       -0.71685266       0.93661871       0.28378081
C       -1.33043662      -0.18619206      -0.53094611
O       -0.32820333      -0.77374416      -1.18321734
C        0.71615068      -0.98033494      -0.13602763
H        1.61174113       0.72403771      -1.29542932
H        2.71661395      -0.03007355      -0.04981676
H        0.92928716       0.34557076       1.67871399
H       -0.67391507       1.88245123      -0.26368454
H       -1.32556650       1.09621360       1.17773817
H       -2.19803257      -0.00201018      -1.16217291
H       -1.45700701      -1.53302239       0.54715024
H       -0.27913584      -1.93903762       0.68914363
14
Frame=15 idx=000570 GeodesicLength=1.0379293258880657 rxn_smarts="[C:1]1([H:7])([H:8])[C@@:2]2([H:9])[C:3]([H:10])([H:11])[C:4]([H:12])([H:13])[O:5][C@@:6]12[H:14]>>[C:1]1([H:7])([H:8])[C@@:2]2([H:9])[C:3]([H:10])([H:11])[C-:4]([H:12])[O+:5]=[C:6]12.[H:13][H:14]"
C        1.69882188       0.12835062      -0.39274286
C        0.63386836       0.33209043       0.64054762
C       -0.71505760       0.93727831       0.28248283
C       -1.33348599      -0.18814199      -0.52560858
O       -0.32898554      -0.77535581      -1.18130979
C        0.71739839      -0.98316200      -0.12895316
H        1.60218970       0.72627344      -1.29313402
H        2.71544948      -0.02913593      -0.05520473
H        0.93089627       0.35377329       1.68101710
H       -0.66880733       1.88152724      -0.26693735
H       -1.32530629       1.10008046       1.17514793
H       -2.19250148       0.00913049      -1.16526665
H       -1.47619586      -1.53485964       0.53855972
H       -0.25828399      -1.95784891       0.69140194
14
Frame=16 idx=000570 GeodesicLength=1.1071276422340681 rxn_smarts="[C:1]1([H:7])([H:8])[C@@:2]2([H:9])[C:3]([H:10])([H:11])[C:4]([H:12])([H:13])[O:5][C@@:6]12[H:14]>>[C:1]1([H:7])([H:8])[C@@:2]2([H:9])[C:3]([H:10])([H:11])[C-:4]([H:12])[O+:5]=[C:6]12.[H:13][H:14]"
C        1.69552051       0.12840509      -0.39241891
C        0.63439621       0.33297550       0.64331605
C       -0.71326749       0.93794489       0.28122000
C       -1.33652845      -0.18989331      -0.52039876
O       -0.32986520      -0.77725991      -1.17921557
C        0.71866526      -0.98595229      -0.12178668
H        1.59253103       0.72834344      -1.29089918
H        2.71420700      -0.02810404      -0.06064932
H        0.93248353       0.36201112       1.68331204
H       -0.66367395       1.88064439      -0.27006714
H       -1.32507116       1.10392513       1.17256901
H       -2.18674280       0.02026928      -1.16837528
H       -1.49696054      -1.53594006       0.52968826
H       -0.23569395      -1.97736923       0.69370548
