15
Frame=0 idx=004379 GeodesicLength=0.0 rxn_smarts="[C:1]1([H:6])([H:7])[C:2]([H:8])([H:9])[C:3]([H:10])([H:11])[C:4]([H:12])([H:13])[C:5]1([H:14])[H:15]>>[C:1]1([H:6])([H:7])[C:2]([C:3]([C:4]([H:8])([H:12])[H:13])([H:10])[H:11])([H:9])[C:5]1([H:14])[H:15]"
C       -1.04807709      -0.81047778       0.48404779
C       -1.07047203       0.57359440      -0.10342667
C        0.24155088       1.28007539       0.05515963
C        1.03281194       0.31518534      -0.83315589
C        0.33703251      -1.28953265       0.45323328
H       -1.29973176      -0.72749177       1.55661432
H       -1.78052240      -1.47883029       0.02898065
H       -0.02381524      -0.19544885      -1.20997892
H       -1.99894259       1.14466455      -0.04725815
H        0.20092559       2.28335096      -0.37431775
H        0.63798689       1.38087134       1.07420209
H        2.02275692      -0.05809147      -0.56226298
H        1.16539353       0.79538607      -1.81149965
H        1.01127957      -0.93722881       1.22364225
H        0.57182332      -2.27602636       0.06601994
15
Frame=1 idx=004379 GeodesicLength=0.10428995288014432 rxn_smarts="[C:1]1([H:6])([H:7])[C:2]([H:8])([H:9])[C:3]([H:10])([H:11])[C:4]([H:12])([H:13])[C:5]1([H:14])[H:15]>>[C:1]1([H:6])([H:7])[C:2]([C:3]([C:4]([H:8])([H:12])[H:13])([H:10])[H:11])([H:9])[C:5]1([H:14])[H:15]"
C       -1.06017216      -0.82278583       0.48774802
C       -1.06235387       0.56676418      -0.08179993
C        0.24869417       1.28255341       0.04234212
C        1.03599536       0.30833897      -0.83710503
C        0.33474383      -1.27404074       0.45920773
H       -1.32854458      -0.75715952       1.55623194
H       -1.77499925      -1.48794094       0.00207028
H       -0.05295193      -0.18387610      -1.22807594
H       -1.98222431       1.14668201       0.01363893
H        0.19537756       2.27447882      -0.41183329
H        0.65386142       1.41254017       1.05387143
H        2.02629842      -0.04923457      -0.54565294
H        1.19256336       0.78218481      -1.81462987
H        0.99338576      -0.94988696       1.25507857
H        0.58032621      -2.24861773       0.04890799
15
Frame=2 idx=004379 GeodesicLength=0.20855292651715884 rxn_smarts="[C:1]1([H:6])([H:7])[C:2]([H:8])([H:9])[C:3]([H:10])([H:11])[C:4]([H:12])([H:13])[C:5]1([H:14])[H:15]>>[C:1]1([H:6])([H:7])[C:2]([C:3]([C:4]([H:8])([H:12])[H:13])([H:10])[H:11])([H:9])[C:5]1([H:14])[H:15]"
C       -1.07206621      -0.83525937       0.49081483
C       -1.05349529       0.55995011      -0.05950515
C        0.25570194       1.28521410       0.02940778
C        1.03934404       0.30169574      -0.84087625
C        0.33238347      -1.25827905       0.46564742
H       -1.35758962      -0.78779160       1.55457646
H       -1.76865099      -1.49597415      -0.02550002
H       -0.08290642      -0.17080764      -1.24564163
H       -1.96336799       1.14798962       0.07535937
H        0.18863957       2.26479583      -0.44950026
H        0.66988160       1.44491430       1.03226292
H        2.02952007      -0.04007281      -0.52927629
H        1.21931197       0.76823349      -1.81753977
H        0.97467876      -0.96380219       1.28612372
H        0.58861510      -2.22080637       0.03364689
15
Frame=3 idx=004379 GeodesicLength=0.31279201823593156 rxn_smarts="[C:1]1([H:6])([H:7])[C:2]([H:8])([H:9])[C:3]([H:10])([H:11])[C:4]([H:12])([H:13])[C:5]1([H:14])[H:15]>>[C:1]1([H:6])([H:7])[C:2]([C:3]([C:4]([H:8])([H:12])[H:13])([H:10])[H:11])([H:9])[C:5]1([H:14])[H:15]"
C       -1.08369837      -0.84780950       0.49323257
C       -1.04387912       0.55311551      -0.03669806
C        0.26250844       1.28805421       0.01633611
C        1.04288306       0.29526168      -0.84440376
C        0.32996139      -1.24228976       0.47258849
H       -1.38673997      -0.81913771       1.55157591
H       -1.76148447      -1.50286231      -0.05354345
H       -0.11367354      -0.15621587      -1.26262540
H       -1.94231574       1.14849176       0.13789253
H        0.18064961       2.25423385      -0.48728549
H        0.68583715       1.47802195       1.00931553
H        2.03245553      -0.03059469      -0.51304791
H        1.24566112       0.75355085      -1.82016227
H        0.95519952      -0.97913939       1.31669029
H        0.59663540      -2.19268059       0.02013490
15
Frame=4 idx=004379 GeodesicLength=0.4170251343234873 rxn_smarts="[C:1]1([H:6])([H:7])[C:2]([H:8])([H:9])[C:3]([H:10])([H:11])[C:4]([H:12])([H:13])[C:5]1([H:14])[H:15]>>[C:1]1([H:6])([H:7])[C:2]([C:3]([C:4]([H:8])([H:12])[H:13])([H:10])[H:11])([H:9])[C:5]1([H:14])[H:15]"
C       -1.09500422      -0.86033670       0.49500601
C       -1.03350966       0.54622983      -0.01356380
C        0.26904346       1.29106260       0.00311159
C        1.04663732       0.28904701      -0.84761415
C        0.32749167      -1.22612367       0.48005334
H       -1.41584149      -0.85089919       1.54719488
H       -1.75352297      -1.50856858      -0.08182371
H       -0.14525204      -0.14009477      -1.27898473
H       -1.91899629       1.14809619       0.20114866
H        0.17137424       2.24272340      -0.52512640
H        0.70148819       1.51187241       0.98497703
H        2.03513489      -0.02076335      -0.49686107
H        1.27162994       0.73817176      -1.82241862
H        0.93499713      -0.99609552       1.34665864
H        0.60432983      -2.16432143       0.00824235
15
Frame=5 idx=004379 GeodesicLength=0.5211635355912725 rxn_smarts="[C:1]1([H:6])([H:7])[C:2]([H:8])([H:9])[C:3]([H:10])([H:11])[C:4]([H:12])([H:13])[C:5]1([H:14])[H:15]>>[C:1]1([H:6])([H:7])[C:2]([C:3]([C:4]([H:8])([H:12])[H:13])([H:10])[H:11])([H:9])[C:5]1([H:14])[H:15]"
C       -1.10591001      -0.87275400       0.49620367
C       -1.02241445       0.53927513       0.00974283
C        0.27524151       1.29423191      -0.01025843
C        1.05062361       0.28306525      -0.85043604
C        0.32500052      -1.20985858       0.48803190
H       -1.44474171      -0.88280173       1.54148364
H       -1.74480819      -1.51309523      -0.11004007
H       -0.17758034      -0.12251792      -1.29469319
H       -1.89340994       1.14672232       0.26481024
H        0.16083652       2.23028958      -0.56287036
H        0.71664568       1.54643303       0.95925297
H        2.03760457      -0.01053273      -0.48062157
H        1.29720559       0.72214448      -1.82427302
H        0.91411790      -1.01478220       1.37590203
H        0.61158875      -2.13581931      -0.00223460
15
Frame=6 idx=004379 GeodesicLength=0.6252854511122364 rxn_smarts="[C:1]1([H:6])([H:7])[C:2]([H:8])([H:9])[C:3]([H:10])([H:11])[C:4]([H:12])([H:13])[C:5]1([H:14])[H:15]>>[C:1]1([H:6])([H:7])[C:2]([C:3]([C:4]([H:8])([H:12])[H:13])([H:10])[H:11])([H:9])[C:5]1([H:14])[H:15]"
C       -1.11636520      -0.88493324       0.49683520
C       -1.01064149       0.53222794       0.03294720
C        0.28102887       1.29752472      -0.02379340
C        1.05487353       0.27732918      -0.85282032
C        0.32251101      -1.19352949       0.49654389
H       -1.47330736      -0.91444889       1.53444407
H       -1.73536673      -1.51646538      -0.13796825
H       -0.21070779      -0.10349162      -1.30970930
H       -1.86546268       1.14427732       0.32885553
H        0.14906284       2.21683071      -0.60045732
H        0.73100718       1.58165419       0.93210120
H        2.03987422       0.00015586      -0.46422884
H        1.32246479       0.70553836      -1.82561664
H        0.89261612      -1.03544012       1.40425178
H        0.61841269      -2.10722955      -0.01138480
15
Frame=7 idx=004379 GeodesicLength=0.7294196109735454 rxn_smarts="[C:1]1([H:6])([H:7])[C:2]([H:8])([H:9])[C:3]([H:10])([H:11])[C:4]([H:12])([H:13])[C:5]1([H:14])[H:15]>>[C:1]1([H:6])([H:7])[C:2]([C:3]([C:4]([H:8])([H:12])[H:13])([H:10])[H:11])([H:9])[C:5]1([H:14])[H:15]"
C       -1.12631315      -0.89676554       0.49696753
C       -0.99825889       0.52508056       0.05581673
C        0.28634696       1.30090741      -0.03749554
C        1.05941506       0.27185380      -0.85471840
C        0.32005320      -1.17718569       0.50558705
H       -1.50140278      -0.94548450       1.52616020
H       -1.72524296      -1.51874732      -0.16534130
H       -0.24466855      -0.08307958      -1.32400660
H       -1.83513893       1.14069088       0.39305037
H        0.13614628       2.20233040      -0.63776869
H        0.74431631       1.61745279       0.90352709
H        2.04196058       0.01136404      -0.44759531
H        1.34746671       0.68844431      -1.82635982
H        0.87055482      -1.05825509       1.43151967
H        0.62476535      -2.07860647      -0.01934299
15
Frame=8 idx=004379 GeodesicLength=0.8335887708315218 rxn_smarts="[C:1]1([H:6])([H:7])[C:2]([H:8])([H:9])[C:3]([H:10])([H:11])[C:4]([H:12])([H:13])[C:5]1([H:14])[H:15]>>[C:1]1([H:6])([H:7])[C:2]([C:3]([C:4]([H:8])([H:12])[H:13])([H:10])[H:11])([H:9])[C:5]1([H:14])[H:15]"
C       -1.13570995      -0.90815432       0.49669426
C       -0.98535615       0.51783542       0.07812676
C        0.29114149       1.30434221      -0.05136109
C        1.06427532       0.26666402      -0.85607879
C        0.31766221      -1.16087457       0.51514978
H       -1.52889220      -0.97555152       1.51677142
H       -1.71450068      -1.52004619      -0.19187086
H       -0.27951205      -0.06137270      -1.33755578
H       -1.80242856       1.13590114       0.45706798
H        0.12221848       2.18678719      -0.67467313
H        0.75633093       1.65372351       0.87355418
H        2.04387812       0.02316596      -0.43062792
H        1.37228694       0.67097138      -1.82640019
H        0.84799558      -1.08340412       1.45747097
H        0.63061051      -2.04998743      -0.02626761
15
Frame=9 idx=004379 GeodesicLength=0.9377738780803612 rxn_smarts="[C:1]1([H:6])([H:7])[C:2]([H:8])([H:9])[C:3]([H:10])([H:11])[C:4]([H:12])([H:13])[C:5]1([H:14])[H:15]>>[C:1]1([H:6])([H:7])[C:2]([C:3]([C:4]([H:8])([H:12])[H:13])([H:10])[H:11])([H:9])[C:5]1([H:14])[H:15]"
C       -1.14450591      -0.91905123       0.49616843
C       -0.97201652       0.51050944       0.09979411
C        0.29538056       1.30780074      -0.06537721
C        1.06950006       0.26177664      -0.85682412
C        0.31537794      -1.14467631       0.52519175
H       -1.55564595      -1.00444896       1.50648655
H       -1.70322893      -1.52044898      -0.21727084
H       -0.31526068      -0.03854313      -1.35035051
H       -1.76744847       1.12989359       0.52041374
H        0.10742259       2.17032618      -0.71102335
H        0.76692012       1.69035935       0.84222117
H        2.04568727       0.03562442      -0.41321689
H        1.39699462       0.65320523      -1.82567710
H        0.82496732      -1.11091207       1.48187766
H        0.63585600      -2.02141491      -0.03241340
15
Frame=10 idx=004379 GeodesicLength=1.0420326789545649 rxn_smarts="[C:1]1([H:6])([H:7])[C:2]([H:8])([H:9])[C:3]([H:10])([H:11])[C:4]([H:12])([H:13])[C:5]1([H:14])[H:15]>>[C:1]1([H:6])([H:7])[C:2]([C:3]([C:4]([H:8])([H:12])[H:13])([H:10])[H:11])([H:9])[C:5]1([H:14])[H:15]"
C       -1.15269359      -0.92936455       0.49545853
C       -0.95834805       0.50311501       0.12055440
C        0.29903779       1.31122594      -0.07954634
C        1.07512022       0.25720272      -0.85695171
C        0.31323489      -1.12859118       0.53574011
H       -1.58162164      -1.03180261       1.49544648
H       -1.69145926      -1.52012067      -0.24137491
H       -0.35208036      -0.01461312      -1.36231678
H       -1.73017169       1.12263863       0.58290598
H        0.09195585       2.15289297      -0.74676422
H        0.77580694       1.72721481       0.80957911
H        2.04735697       0.04880444      -0.39531711
H        1.42172457       0.63527028      -1.82406557
H        0.80157668      -1.14098251       1.50444205
H        0.64056070      -1.99289015      -0.03778999
15
Frame=11 idx=004379 GeodesicLength=1.1463431761422893 rxn_smarts="[C:1]1([H:6])([H:7])[C:2]([H:8])([H:9])[C:3]([H:10])([H:11])[C:4]([H:12])([H:13])[C:5]1([H:14])[H:15]>>[C:1]1([H:6])([H:7])[C:2]([C:3]([C:4]([H:8])([H:12])[H:13])([H:10])[H:11])([H:9])[C:5]1([H:14])[H:15]"
C       -1.16026658      -0.93905940       0.49468738
C       -0.94444206       0.49567358       0.14029972
C        0.30210319       1.31457707      -0.09386205
C        1.08117339       0.25294931      -0.85643410
C        0.31126707      -1.11265334       0.54679470
H       -1.60678772      -1.05740753       1.48385086
H       -1.67924931      -1.51921119      -0.26401475
H       -0.39009210       0.01032385      -1.37340082
H       -1.69070492       1.11414633       0.64418183
H        0.07602228       2.13455920      -0.78181619
H        0.78286301       1.76413394       0.77568890
H        2.04889688       0.06275569      -0.37687233
H        1.44659562       0.61726514      -1.82147351
H        0.77790600      -1.17363039       1.52487427
H        0.64471525      -1.96442227      -0.04250392
15
Frame=12 idx=004379 GeodesicLength=1.2507152813564115 rxn_smarts="[C:1]1([H:6])([H:7])[C:2]([H:8])([H:9])[C:3]([H:10])([H:11])[C:4]([H:12])([H:13])[C:5]1([H:14])[H:15]>>[C:1]1([H:6])([H:7])[C:2]([C:3]([C:4]([H:8])([H:12])[H:13])([H:10])[H:11])([H:9])[C:5]1([H:14])[H:15]"
C       -1.16722125      -0.94812119       0.49397932
C       -0.93037852       0.48820958       0.15897594
C        0.30458882       1.31780575      -0.10831941
C        1.08770796       0.24902231      -0.85522243
C        0.30950336      -1.09690411       0.55835294
H       -1.63111047      -1.08112051       1.47191127
H       -1.66666809      -1.51785737      -0.28505263
H       -0.42947371       0.03618845      -1.38352274
H       -1.64917193       1.10446413       0.70384816
H        0.05983529       2.11537018      -0.81614409
H        0.78797324       1.80097833       0.74061115
H        2.05031858       0.07752093      -0.35780536
H        1.47173731       0.59928528      -1.81778803
H        0.75405080      -1.20882672       1.54284592
H        0.64830862      -1.93601505      -0.04667000
15
Frame=13 idx=004379 GeodesicLength=1.3551331797744244 rxn_smarts="[C:1]1([H:6])([H:7])[C:2]([H:8])([H:9])[C:3]([H:10])([H:11])[C:4]([H:12])([H:13])[C:5]1([H:14])[H:15]>>[C:1]1([H:6])([H:7])[C:2]([C:3]([C:4]([H:8])([H:12])[H:13])([H:10])[H:11])([H:9])[C:5]1([H:14])[H:15]"
C       -1.17355628      -0.95657545       0.49349186
C       -0.91620336       0.48073446       0.17664154
C        0.30650671       1.32087293      -0.12291459
C        1.09479702       0.24541517      -0.85323212
C        0.30797265      -1.08142636       0.57036883
H       -1.65451648      -1.10290473       1.45986679
H       -1.65383060      -1.51614587      -0.30434482
H       -0.47039208       0.06289646      -1.39259304
H       -1.60583092       1.09366929       0.76143910
H        0.04356226       2.09542762      -0.84973745
H        0.79112194       1.83761187       0.70436873
H        2.05166269       0.09312845      -0.33798344
H        1.49732985       0.58139243      -1.81289659
H        0.73010040      -1.24641778       1.55803350
H        0.65127618      -1.90767848      -0.05050829
15
Frame=14 idx=004379 GeodesicLength=1.4595544819094053 rxn_smarts="[C:1]1([H:6])([H:7])[C:2]([H:8])([H:9])[C:3]([H:10])([H:11])[C:4]([H:12])([H:13])[C:5]1([H:14])[H:15]>>[C:1]1([H:6])([H:7])[C:2]([C:3]([C:4]([H:8])([H:12])[H:13])([H:10])[H:11])([H:9])[C:5]1([H:14])[H:15]"
C       -1.17931040      -0.96442705       0.49329307
C       -0.90198117       0.47326733       0.19320653
C        0.30789621       1.32371253      -0.13764529
C        1.10248032       0.24211217      -0.85047788
C        0.30668940      -1.06622411       0.58288283
H       -1.67708919      -1.12263773       1.44786939
H       -1.64074936      -1.51425179      -0.32189843
H       -0.51310628       0.09048206      -1.40044016
H       -1.56080178       1.08185264       0.81672853
H        0.02745273       2.07471969      -0.88261311
H        0.79219836       1.87384797       0.66707952
H        2.05290806       0.10958905      -0.31741324
H        1.52350351       0.56365616      -1.80670346
H        0.70621861      -1.28628756       1.57008261
H        0.65369098      -1.87941136      -0.05395091
15
Frame=15 idx=004379 GeodesicLength=1.5639310103042177 rxn_smarts="[C:1]1([H:6])([H:7])[C:2]([H:8])([H:9])[C:3]([H:10])([H:11])[C:4]([H:12])([H:13])[C:5]1([H:14])[H:15]>>[C:1]1([H:6])([H:7])[C:2]([C:3]([C:4]([H:8])([H:12])[H:13])([H:10])[H:11])([H:9])[C:5]1([H:14])[H:15]"
C       -1.18451261      -0.97172250       0.49347857
C       -0.88773071       0.46580387       0.20872955
C        0.30879634       1.32626278      -0.15251421
C        1.11082560       0.23908699      -0.84691332
C        0.30566510      -1.05137351       0.59586458
H       -1.69883264      -1.14033752       1.43609504
H       -1.62750718      -1.51225793      -0.33769331
H       -0.55785492       0.11895584      -1.40690543
H       -1.51435286       1.06913862       0.86939543
H        0.01169603       2.05327998      -0.91481461
H        0.79120651       1.90950940       0.62880800
H        2.05406653       0.12689626      -0.29601689
H        1.55043164       0.54612167      -1.79909572
H        0.68256498      -1.32812302       1.57868329
H        0.65553819      -1.85124094      -0.05710096
15
Frame=16 idx=004379 GeodesicLength=1.6682130993117519 rxn_smarts="[C:1]1([H:6])([H:7])[C:2]([H:8])([H:9])[C:3]([H:10])([H:11])[C:4]([H:12])([H:13])[C:5]1([H:14])[H:15]>>[C:1]1([H:6])([H:7])[C:2]([C:3]([C:4]([H:8])([H:12])[H:13])([H:10])[H:11])([H:9])[C:5]1([H:14])[H:15]"
C       -1.18919402      -0.97852394       0.49412729
C       -0.87345389       0.45833130       0.22327957
C        0.30925812       1.32845027      -0.16753085
C        1.11990845       0.23630294      -0.84249139
C        0.30490294      -1.03696688       0.60926330
H       -1.71974686      -1.15607045       1.42470061
H       -1.61420146      -1.51023178      -0.35174825
H       -0.60491746       0.14838511      -1.41177947
H       -1.46677143       1.05567571       0.91913897
H       -0.00352586       2.03111907      -0.94640664
H        0.78817104       1.94441359       0.58960660
H        2.05514479       0.14502533      -0.27371126
H        1.57829393       0.52882277      -1.78994549
H        0.65932399      -1.37152462       1.58356123
H        0.65680770      -1.82320841      -0.06006421
