18
Frame=0 idx=002997 GeodesicLength=0.0 rxn_smarts="[C:1]([C:2]([C:3]([H:11])([H:12])[H:13])([C@@:4]([C:5]([H:15])([H:16])[H:17])([O:6][H:18])[H:14])[H:10])([H:7])([H:8])[H:9]>>[C:1]([C:2]([C:3]([H:11])([H:12])[H:13])([O:6][H:18])[H:10])([H:7])([H:8])[H:9].[C:4]([C:5]([H:15])([H:16])[H:17])[H:14]"
C       -1.48571191       1.32075562      -0.23163763
C       -0.79178809       0.04222090       0.10351272
C       -1.43146199      -1.19842787      -0.47276071
C        1.28571401       0.73414650       0.18811386
C        2.08829991      -0.26525403       0.96186326
O        0.67486656       0.00150085      -1.01064709
H       -1.14811949       2.13070930       0.40780600
H       -1.29869658       1.59095438      -1.27125547
H       -2.56675597       1.17185763      -0.12339846
H       -0.55264014      -0.08177149       1.15026034
H       -0.83074782      -2.08882145      -0.28515478
H       -2.38987378      -1.33740583       0.03874119
H       -1.62009478      -1.10508494      -1.54244789
H        1.94452177       1.49227305      -0.24777890
H        2.69957033       0.25421139       1.70323043
H        2.78361018      -0.85636598       0.33019333
H        1.46934460      -0.99208336       1.50757594
H        1.16996320      -0.81341463      -1.20621621
18
Frame=1 idx=002997 GeodesicLength=0.04405031600085986 rxn_smarts="[C:1]([C:2]([C:3]([H:11])([H:12])[H:13])([C@@:4]([C:5]([H:15])([H:16])[H:17])([O:6][H:18])[H:14])[H:10])([H:7])([H:8])[H:9]>>[C:1]([C:2]([C:3]([H:11])([H:12])[H:13])([O:6][H:18])[H:10])([H:7])([H:8])[H:9].[C:4]([C:5]([H:15])([H:16])[H:17])[H:14]"
C       -1.48744162       1.32095197      -0.23878923
C       -0.78407793       0.04710151       0.10128984
C       -1.42144160      -1.19909401      -0.46798009
C        1.27690292       0.72722673       0.19993877
C        2.08544283      -0.27764589       0.96047634
O        0.67763765       0.01812443      -1.01672852
H       -1.14064460       2.13988696       0.38459335
H       -1.31911375       1.57861774      -1.28482273
H       -2.56611735       1.17433892      -0.10896728
H       -0.56674265      -0.07180060       1.15446361
H       -0.82026014      -2.08751900      -0.27186366
H       -2.38300128      -1.33654373       0.03748338
H       -1.60534688      -1.11356105      -1.53920810
H        1.92391317       1.50495929      -0.21812569
H        2.72266528       0.23929428       1.68165854
H        2.75885187      -0.88924092       0.32589786
H        1.46824106      -0.98807755       1.52860277
H        1.18053301      -0.78701908      -1.22791913
18
Frame=2 idx=002997 GeodesicLength=0.08826448423055529 rxn_smarts="[C:1]([C:2]([C:3]([H:11])([H:12])[H:13])([C@@:4]([C:5]([H:15])([H:16])[H:17])([O:6][H:18])[H:14])[H:10])([H:7])([H:8])[H:9]>>[C:1]([C:2]([C:3]([H:11])([H:12])[H:13])([O:6][H:18])[H:10])([H:7])([H:8])[H:9].[C:4]([C:5]([H:15])([H:16])[H:17])[H:14]"
C       -1.48913822       1.32096294      -0.24565497
C       -0.77643976       0.05179998       0.09927423
C       -1.41125558      -1.19975069      -0.46349207
C        1.26809464       0.72027931       0.21145423
C        2.08236579      -0.28987839       0.95900199
O        0.68040234       0.03501079      -1.02249086
H       -1.13330793       2.14856078       0.36149305
H       -1.33933430       1.56600104      -1.29758341
H       -2.56508530       1.17699395      -0.09458964
H       -0.58087642      -0.06217898       1.15835377
H       -0.80978806      -2.08621456      -0.25878902
H       -2.37613394      -1.33581626       0.03544577
H       -1.58994509      -1.12180225      -1.53624793
H        1.90309094       1.51697237      -0.18829857
H        2.74643498       0.22434193       1.65772351
H        2.73191492      -0.92321193       0.32220056
H        1.46778999      -0.98219643       1.55115560
H        1.19121100      -0.75987359      -1.24895624
18
Frame=3 idx=002997 GeodesicLength=0.13253158490381894 rxn_smarts="[C:1]([C:2]([C:3]([H:11])([H:12])[H:13])([C@@:4]([C:5]([H:15])([H:16])[H:17])([O:6][H:18])[H:14])[H:10])([H:7])([H:8])[H:9]>>[C:1]([C:2]([C:3]([H:11])([H:12])[H:13])([O:6][H:18])[H:10])([H:7])([H:8])[H:9].[C:4]([C:5]([H:15])([H:16])[H:17])[H:14]"
C       -1.49076608       1.32079347      -0.25217830
C       -0.76888270       0.05626134       0.09745641
C       -1.40100704      -1.20041614      -0.45934648
C        1.25930213       0.71333083       0.22261413
C        2.07911249      -0.30187114       0.95746431
O        0.68319365       0.05200943      -1.02791626
H       -1.12615148       2.15667126       0.33872744
H       -1.35914633       1.55323098      -1.30944307
H       -2.56368245       1.17983321      -0.08036669
H       -0.59500803      -0.05302713       1.16191345
H       -0.79950693      -2.08499391      -0.24602132
H       -2.36938828      -1.33519364       0.03258215
H       -1.57398125      -1.12977585      -1.53360796
H        1.88207426       1.52829621      -0.15845887
H        2.77072357       0.20941582       1.63133894
H        2.70282340      -0.95806898       0.31927775
H        1.46823087      -0.97433041       1.57514831
H        1.20206020      -0.73216536      -1.26918393
18
Frame=4 idx=002997 GeodesicLength=0.17682047512592938 rxn_smarts="[C:1]([C:2]([C:3]([H:11])([H:12])[H:13])([C@@:4]([C:5]([H:15])([H:16])[H:17])([O:6][H:18])[H:14])[H:10])([H:7])([H:8])[H:9]>>[C:1]([C:2]([C:3]([H:11])([H:12])[H:13])([O:6][H:18])[H:10])([H:7])([H:8])[H:9].[C:4]([C:5]([H:15])([H:16])[H:17])[H:14]"
C       -1.49229909       1.32044676      -0.25835656
C       -0.76139673       0.06046837       0.09582997
C       -1.39074153      -1.20109625      -0.45554051
C        1.25053009       0.70641478       0.23340699
C        2.07569409      -0.31360158       0.95588094
O        0.68601043       0.06905692      -1.03299619
H       -1.11917453       2.16419500       0.31638551
H       -1.37845895       1.54037281      -1.32041029
H       -2.56191358       1.18284878      -0.06637151
H       -0.60908384      -0.04440070       1.16514815
H       -0.78950634      -2.08389365      -0.23355717
H       -2.36278871      -1.33465449       0.02890974
H       -1.55751546      -1.13747253      -1.53128653
H        1.86089546       1.53892458      -0.12869143
H        2.79530395       0.19441358       1.60252502
H        2.67159490      -0.99354804       0.31725708
H        1.46976380      -0.96449374       1.60038445
H        1.21308604      -0.70398061      -1.28851766
18
Frame=5 idx=002997 GeodesicLength=0.2212478029492722 rxn_smarts="[C:1]([C:2]([C:3]([H:11])([H:12])[H:13])([C@@:4]([C:5]([H:15])([H:16])[H:17])([O:6][H:18])[H:14])[H:10])([H:7])([H:8])[H:9]>>[C:1]([C:2]([C:3]([H:11])([H:12])[H:13])([O:6][H:18])[H:10])([H:7])([H:8])[H:9].[C:4]([C:5]([H:15])([H:16])[H:17])[H:14]"
C       -1.49376486       1.31992147      -0.26422645
C       -0.75397235       0.06445500       0.09439580
C       -1.38039550      -1.20179451      -0.45204982
C        1.24177833       0.69957321       0.24391140
C        2.07206558      -0.32513245       0.95425437
O        0.68887113       0.08624447      -1.03770533
H       -1.11238741       2.17117983       0.29437151
H       -1.39736077       1.52737653      -1.33056647
H       -2.55981414       1.18600441      -0.05257721
H       -0.62311164      -0.03625692       1.16807672
H       -0.77971678      -2.08289510      -0.22132574
H       -2.35626780      -1.33421608       0.02443017
H       -1.54044851      -1.14493501      -1.52926123
H        1.83960105       1.54889438      -0.09887975
H        2.82015144       0.17903122       1.57105744
H        2.63793366      -1.02967272       0.31623601
H        1.47250736      -0.95257367       1.62682379
H        1.22433121      -0.67520405      -1.30696522
18
Frame=6 idx=002997 GeodesicLength=0.2659266598087647 rxn_smarts="[C:1]([C:2]([C:3]([H:11])([H:12])[H:13])([C@@:4]([C:5]([H:15])([H:16])[H:17])([O:6][H:18])[H:14])[H:10])([H:7])([H:8])[H:9]>>[C:1]([C:2]([C:3]([H:11])([H:12])[H:13])([O:6][H:18])[H:10])([H:7])([H:8])[H:9].[C:4]([C:5]([H:15])([H:16])[H:17])[H:14]"
C       -1.49517543       1.31921184      -0.26979863
C       -0.74660155       0.06822380       0.09315055
C       -1.36993910      -1.20252229      -0.44888900
C        1.23304384       0.69284977       0.25418828
C        2.06820372      -0.33648483       0.95260793
O        0.69179778       0.10361209      -1.04201405
H       -1.10580844       2.17764489       0.27266913
H       -1.41587644       1.51423577      -1.33994680
H       -2.55741026       1.18926411      -0.03896911
H       -0.63708865      -0.02861399       1.17070871
H       -0.77012935      -2.08201621      -0.20932028
H       -2.34979847      -1.33389410       0.01909386
H       -1.52271713      -1.15217605      -1.52754586
H        1.81821407       1.55824947      -0.06895321
H        2.84527300       0.16304062       1.53661616
H        2.60150196      -1.06647829       0.31640022
H        1.47665153      -0.93837143       1.65448251
H        1.23585892      -0.64577518      -1.32448041
18
Frame=7 idx=002997 GeodesicLength=0.3108098034826121 rxn_smarts="[C:1]([C:2]([C:3]([H:11])([H:12])[H:13])([C@@:4]([C:5]([H:15])([H:16])[H:17])([O:6][H:18])[H:14])[H:10])([H:7])([H:8])[H:9]>>[C:1]([C:2]([C:3]([H:11])([H:12])[H:13])([O:6][H:18])[H:10])([H:7])([H:8])[H:9].[C:4]([C:5]([H:15])([H:16])[H:17])[H:14]"
C       -1.49649706       1.31832613      -0.27506618
C       -0.73928041       0.07175537       0.09209302
C       -1.35943966      -1.20328239      -0.44604465
C        1.22433200       0.68627069       0.26422164
C        2.06413016      -0.34762474       0.95095461
O        0.69480022       0.12105114      -1.04590834
H       -1.09941981       2.18358113       0.25135895
H       -1.43390002       1.50100391      -1.34855669
H       -2.55470479       1.19264259      -0.02560341
H       -0.65097159      -0.02151665       1.17305362
H       -0.76086760      -2.08129891      -0.19753257
H       -2.34343233      -1.33364550       0.01292991
H       -1.50439835      -1.15919029      -1.52612146
H        1.79678929       1.56696212      -0.03903175
H        2.87024942       0.14634264       1.49935216
H        2.56250225      -1.10348109       0.31786783
H        1.48243305      -0.92204294       1.68297180
H        1.24767523      -0.61585322      -1.34093849
18
Frame=8 idx=002997 GeodesicLength=0.3558580860451491 rxn_smarts="[C:1]([C:2]([C:3]([H:11])([H:12])[H:13])([C@@:4]([C:5]([H:15])([H:16])[H:17])([O:6][H:18])[H:14])[H:10])([H:7])([H:8])[H:9]>>[C:1]([C:2]([C:3]([H:11])([H:12])[H:13])([O:6][H:18])[H:10])([H:7])([H:8])[H:9].[C:4]([C:5]([H:15])([H:16])[H:17])[H:14]"
C       -1.49769146       1.31726883      -0.28001819
C       -0.73200873       0.07502053       0.09121772
C       -1.34897881      -1.20407291      -0.44351266
C        1.21564307       0.67984998       0.27399561
C        2.05988296      -0.35850029       0.94931915
O        0.69788882       0.13842829      -1.04937479
H       -1.09321048       2.18896513       0.23055310
H       -1.45129838       1.48775208      -1.35639573
H       -2.55170121       1.19614867      -0.01254087
H       -0.66472142      -0.01501778       1.17511586
H       -0.75206919      -2.08078388      -0.18598568
H       -2.33723028      -1.33342002       0.00596785
H       -1.48559750      -1.16595415      -1.52497256
H        1.77535529       1.57500962      -0.00925374
H        2.89469045       0.12891531       1.45942623
H        2.52119606      -1.14021674       0.32077530
H        1.49006096      -0.90376456       1.71189573
H        1.25978984      -0.58562810      -1.35621233
18
Frame=9 idx=002997 GeodesicLength=0.40099048368216644 rxn_smarts="[C:1]([C:2]([C:3]([H:11])([H:12])[H:13])([C@@:4]([C:5]([H:15])([H:16])[H:17])([O:6][H:18])[H:14])[H:10])([H:7])([H:8])[H:9]>>[C:1]([C:2]([C:3]([H:11])([H:12])[H:13])([O:6][H:18])[H:10])([H:7])([H:8])[H:9].[C:4]([C:5]([H:15])([H:16])[H:17])[H:14]"
C       -1.49871355       1.31605761      -0.28468379
C       -0.72479069       0.07802737       0.09053018
C       -1.33863603      -1.20488634      -0.44120869
C        1.20698155       0.67359002       0.28349927
C        2.05548792      -0.36909534       0.94768288
O        0.70106193       0.15563827      -1.05240285
H       -1.08711520       2.19382023       0.21023403
H       -1.46798862       1.47449718      -1.36351914
H       -2.54838681       1.19981170       0.00016692
H       -0.67831793      -0.00908864       1.17691346
H       -0.74385944      -2.08047431      -0.17457606
H       -2.33124864      -1.33315613      -0.00167557
H       -1.46641524      -1.17249330      -1.52400002
H        1.75399016       1.58234999       0.02025138
H        2.91797981       0.11074596       1.41738833
H        2.47820078      -1.17597704       0.32502837
H        1.49961651      -0.88408814       1.74058372
H        1.27215350      -0.55527911      -1.37021243
18
Frame=10 idx=002997 GeodesicLength=0.4462531474401408 rxn_smarts="[C:1]([C:2]([C:3]([H:11])([H:12])[H:13])([C@@:4]([C:5]([H:15])([H:16])[H:17])([O:6][H:18])[H:14])[H:10])([H:7])([H:8])[H:9]>>[C:1]([C:2]([C:3]([H:11])([H:12])[H:13])([O:6][H:18])[H:10])([H:7])([H:8])[H:9].[C:4]([C:5]([H:15])([H:16])[H:17])[H:14]"
C       -1.49959492       1.31472092      -0.28909610
C       -0.71764213       0.08080074       0.09003587
C       -1.32842794      -1.20574705      -0.43911256
C        1.19836452       0.66751341       0.29280178
C        2.05098704      -0.37943441       0.94606458
O        0.70433853       0.17268897      -1.05499540
H       -1.08113529       2.19822771       0.19034708
H       -1.48403231       1.46122111      -1.37001693
H       -2.54482210       1.20365162       0.01253996
H       -0.69178747      -0.00366932       1.17849289
H       -0.73626238      -2.08039681      -0.16324555
H       -2.32551942      -1.33285861      -0.00999822
H       -1.44684597      -1.17887916      -1.52320058
H        1.73274786       1.58904082       0.04954761
H        2.93998462       0.09173031       1.37331453
H        2.43365685      -1.21060684       0.33066084
H        1.51119467      -0.86317932       1.76882052
H        1.28479585      -0.52482408      -1.38296031
18
Frame=11 idx=002997 GeodesicLength=0.4918594513190017 rxn_smarts="[C:1]([C:2]([C:3]([H:11])([H:12])[H:13])([C@@:4]([C:5]([H:15])([H:16])[H:17])([O:6][H:18])[H:14])[H:10])([H:7])([H:8])[H:9]>>[C:1]([C:2]([C:3]([H:11])([H:12])[H:13])([O:6][H:18])[H:10])([H:7])([H:8])[H:9].[C:4]([C:5]([H:15])([H:16])[H:17])[H:14]"
C       -1.50033305       1.31325683      -0.29332723
C       -0.71054341       0.08338196       0.08973354
C       -1.31826871      -1.20658764      -0.43712375
C        1.18972464       0.66157820       0.30193926
C        2.04634423      -0.38958545       0.94442453
O        0.70765471       0.18960600      -1.05708648
H       -1.07526752       2.20218276       0.17071706
H       -1.49950329       1.44787172      -1.37595127
H       -2.54095832       1.20767728       0.02454080
H       -0.70509498       0.00129902       1.17982405
H       -0.72918714      -2.08044441      -0.15183536
H       -2.31989234      -1.33243807      -0.01893593
H       -1.42680724      -1.18507683      -1.52241878
H        1.71154996       1.59501550       0.07865336
H        2.96030982       0.07172187       1.32742413
H        2.38782494      -1.24380626       0.33761709
H        1.52482077      -0.84142281       1.79617957
H        1.29762691      -0.49422967      -1.39437458
18
Frame=12 idx=002997 GeodesicLength=0.5376131561757368 rxn_smarts="[C:1]([C:2]([C:3]([H:11])([H:12])[H:13])([C@@:4]([C:5]([H:15])([H:16])[H:17])([O:6][H:18])[H:14])[H:10])([H:7])([H:8])[H:9]>>[C:1]([C:2]([C:3]([H:11])([H:12])[H:13])([O:6][H:18])[H:10])([H:7])([H:8])[H:9].[C:4]([C:5]([H:15])([H:16])[H:17])[H:14]"
C       -1.50093431       1.31170627      -0.29738543
C       -0.70353933       0.08578560       0.08963848
C       -1.30828934      -1.20747212      -0.43521771
C        1.18113365       0.65581532       0.31094582
C        2.04165127      -0.39951736       0.94276878
O        0.71106588       0.20633555      -1.05872648
H       -1.06945737       2.20578093       0.15136463
H       -1.51436909       1.43444992      -1.38140203
H       -2.53688248       1.21192991       0.03617945
H       -0.71831281       0.00589248       1.18098885
H       -0.72279050      -2.08069034      -0.14031480
H       -2.31454259      -1.33193416      -0.02842910
H       -1.40641613      -1.19121260      -1.52166700
H        1.69056736       1.60034441       0.10753478
H        2.97874809       0.05086685       1.28017950
H        2.34125789      -1.27525537       0.34573929
H        1.54044080      -0.81920345       1.82234804
H        1.31066903      -0.46362186      -1.40454507
18
Frame=13 idx=002997 GeodesicLength=0.5835856784681586 rxn_smarts="[C:1]([C:2]([C:3]([H:11])([H:12])[H:13])([C@@:4]([C:5]([H:15])([H:16])[H:17])([O:6][H:18])[H:14])[H:10])([H:7])([H:8])[H:9]>>[C:1]([C:2]([C:3]([H:11])([H:12])[H:13])([O:6][H:18])[H:10])([H:7])([H:8])[H:9].[C:4]([C:5]([H:15])([H:16])[H:17])[H:14]"
C       -1.50138702       1.31008779      -0.30130066
C       -0.69662631       0.08802210       0.08974452
C       -1.29848252      -1.20837437      -0.43334084
C        1.17255389       0.65018933       0.31981956
C        2.03692726      -0.40923855       0.94108019
O        0.71452730       0.22283521      -1.05990077
H       -1.06369740       2.20902501       0.13225420
H       -1.52862408       1.42098642      -1.38639914
H       -2.53257244       1.21643759       0.04741922
H       -0.73142135       0.01013660       1.18197591
H       -0.71706878      -2.08110312      -0.12862813
H       -2.30941320      -1.33129533      -0.03842068
H       -1.38569395      -1.19726645      -1.52085690
H        1.66974396       1.60500251       0.13611073
H        2.99502399       0.02925015       1.23191900
H        2.29437763      -1.30474843       0.35495957
H        1.55799325      -0.79687161       1.84701831
H        1.32383978      -0.43307485      -1.41345407
18
Frame=14 idx=002997 GeodesicLength=0.629645823289571 rxn_smarts="[C:1]([C:2]([C:3]([H:11])([H:12])[H:13])([C@@:4]([C:5]([H:15])([H:16])[H:17])([O:6][H:18])[H:14])[H:10])([H:7])([H:8])[H:9]>>[C:1]([C:2]([C:3]([H:11])([H:12])[H:13])([O:6][H:18])[H:10])([H:7])([H:8])[H:9].[C:4]([C:5]([H:15])([H:16])[H:17])[H:14]"
C       -1.50168041       1.30840252      -0.30508812
C       -0.68982152       0.09008856       0.09003752
C       -1.28893666      -1.20927201      -0.43145931
C        1.16400286       0.64465352       0.32853141
C        2.03225155      -0.41871517       0.93934898
O        0.71800923       0.23900240      -1.06062721
H       -1.05794679       2.21188747       0.11340938
H       -1.54223998       1.40750003      -1.39096769
H       -2.52804484       1.22121846       0.05822076
H       -0.74441097       0.01406159       1.18277778
H       -0.71210091      -2.08164446      -0.11678610
H       -2.30455706      -1.33046802      -0.04882331
H       -1.36480933      -1.20322251      -1.51992835
H        1.64910193       1.60895298       0.16426374
H        3.00895421       0.00711351       1.18321863
H        2.24784565      -1.33203133       0.36512133
H        1.57731204      -0.77480628       1.86987795
H        1.33707097      -0.40272126      -1.42112740
18
Frame=15 idx=002997 GeodesicLength=0.675790770244211 rxn_smarts="[C:1]([C:2]([C:3]([H:11])([H:12])[H:13])([C@@:4]([C:5]([H:15])([H:16])[H:17])([O:6][H:18])[H:14])[H:10])([H:7])([H:8])[H:9]>>[C:1]([C:2]([C:3]([H:11])([H:12])[H:13])([O:6][H:18])[H:10])([H:7])([H:8])[H:9].[C:4]([C:5]([H:15])([H:16])[H:17])[H:14]"
C       -1.50182546       1.30669235      -0.30878506
C       -0.68313904       0.09202720       0.09052985
C       -1.27964084      -1.21018556      -0.42951329
C        1.15547623       0.63919677       0.33711979
C        2.02763979      -0.42798937       0.93754226
O        0.72150153       0.25487897      -1.06093073
H       -1.05218098       2.21445732       0.09472819
H       -1.55527495       1.39397191      -1.39518350
H       -2.52331334       1.22631117       0.06860532
H       -0.75732726       0.01775887       1.18343890
H       -0.70787190      -2.08230945      -0.10467679
H       -2.29996049      -1.32947278      -0.05959076
H       -1.34371938      -1.20916219      -1.51882737
H        1.62865121       1.61224235       0.19201546
H        3.02046810      -0.01539160       1.13440276
H        2.20198075      -1.35713684       0.37600208
H        1.59822135      -0.75335400       1.89080092
H        1.35031467      -0.37253514      -1.42767803
18
Frame=16 idx=002997 GeodesicLength=0.7219078437198733 rxn_smarts="[C:1]([C:2]([C:3]([H:11])([H:12])[H:13])([C@@:4]([C:5]([H:15])([H:16])[H:17])([O:6][H:18])[H:14])[H:10])([H:7])([H:8])[H:9]>>[C:1]([C:2]([C:3]([H:11])([H:12])[H:13])([O:6][H:18])[H:10])([H:7])([H:8])[H:9].[C:4]([C:5]([H:15])([H:16])[H:17])[H:14]"
C       -1.50182170       1.30496911      -0.31239754
C       -0.67658813       0.09383613       0.09120226
C       -1.27064362      -1.21110679      -0.42747999
C        1.14698646       0.63378185       0.34554012
C        2.02313895      -0.43704450       0.93564876
O        0.72497439       0.27039801      -1.06084717
H       -1.04638564       2.21672094       0.07625233
H       -1.56771214       1.38045058      -1.39905878
H       -2.51839735       1.23172613       0.07854459
H       -0.77015952       0.02125201       1.18394646
H       -0.70439398      -2.08307595      -0.09234392
H       -2.29562685      -1.32829857      -0.07062737
H       -1.32256528      -1.21506639      -1.51750563
H        1.60839251       1.61486563       0.21925266
H        3.02955042      -0.03804886       1.08592549
H        2.15725625      -1.38003771       0.38746849
H        1.62047706      -0.73272963       1.90965508
H        1.36351816      -0.34259200      -1.43317584
