14
Frame=0 idx=002696 GeodesicLength=0.0 rxn_smarts="[O:1]([C@@:2]1([H:8])[C:3]([H:9])([H:10])[C:4]([H:11])([H:12])[C@:5]1([O:6][H:14])[H:13])[H:7]>>[H:12][H:14].[O:1]([C@@:2]1([H:8])[C:3]([H:9])([H:10])[C:4]([H:11])([H:13])[C:5]1=[O:6])[H:7]"
O       -0.46323089      -1.42391449       1.21977049
C       -0.29805883      -1.00181811      -0.09839384
C       -1.13224951       0.27186506      -0.47602697
C        0.14170963       1.06241173      -0.46296514
C        0.99001568      -0.11425657      -0.26123937
O        2.07301584      -0.10737468       0.41275874
H       -1.07765794      -2.15759738       1.24760348
H       -0.37977462      -1.83208998      -0.80611674
H       -1.72109012       0.28273323      -1.39488623
H       -1.77507834       0.55008487       0.36035383
H        0.38819951       2.03689482      -0.87432110
H        0.73977096       1.51207558       1.25566767
H        1.09752984      -0.08669579      -1.41898274
H        1.41689882       1.00768167       1.29677795
14
Frame=1 idx=002696 GeodesicLength=0.08791439082290058 rxn_smarts="[O:1]([C@@:2]1([H:8])[C:3]([H:9])([H:10])[C:4]([H:11])([H:12])[C@:5]1([O:6][H:14])[H:13])[H:7]>>[H:12][H:14].[O:1]([C@@:2]1([H:8])[C:3]([H:9])([H:10])[C:4]([H:11])([H:13])[C:5]1=[O:6])[H:7]"
O       -0.45444267      -1.42000014       1.22440260
C       -0.29633487      -1.00266754      -0.09701397
C       -1.12930868       0.26963820      -0.47582081
C        0.14674970       1.06110976      -0.47056124
C        0.99280175      -0.12246240      -0.26830570
O        2.07015591      -0.11431956       0.41685613
H       -1.07920025      -2.14462396       1.25945578
H       -0.37977800      -1.83461602      -0.80259805
H       -1.71627673       0.27305381      -1.39577561
H       -1.77286185       0.55403033       0.35779603
H        0.38865435       2.03882656      -0.87568932
H        0.73002239       1.51063306       1.25123235
H        1.08859696      -0.05453984      -1.43926852
H        1.41122199       0.98593774       1.31529034
14
Frame=2 idx=002696 GeodesicLength=0.17569920013302592 rxn_smarts="[O:1]([C@@:2]1([H:8])[C:3]([H:9])([H:10])[C:4]([H:11])([H:12])[C@:5]1([O:6][H:14])[H:13])[H:7]>>[H:12][H:14].[O:1]([C@@:2]1([H:8])[C:3]([H:9])([H:10])[C:4]([H:11])([H:13])[C:5]1=[O:6])[H:7]"
O       -0.44569212      -1.41594453       1.22896369
C       -0.29456557      -1.00344692      -0.09559946
C       -1.12632858       0.26735463      -0.47573812
C        0.15170894       1.05988379      -0.47791322
C        0.99559957      -0.13060881      -0.27572106
O        2.06708749      -0.12132970       0.42079192
H       -1.08056517      -2.13135101       1.27133530
H       -0.37985665      -1.83711027      -0.79892350
H       -1.71125345       0.26333404      -1.39679197
H       -1.77080848       0.55778095       0.35490995
H        0.38884085       2.04084228      -0.87670011
H        0.72045690       1.50899691       1.24680888
H        1.07962744      -0.02246304      -1.45879827
H        1.40574884       0.96406169       1.33337596
14
Frame=3 idx=002696 GeodesicLength=0.2635906619513567 rxn_smarts="[O:1]([C@@:2]1([H:8])[C:3]([H:9])([H:10])[C:4]([H:11])([H:12])[C@:5]1([O:6][H:14])[H:13])[H:7]>>[H:12][H:14].[O:1]([C@@:2]1([H:8])[C:3]([H:9])([H:10])[C:4]([H:11])([H:13])[C:5]1=[O:6])[H:7]"
O       -0.43696003      -1.41179684       1.23353244
C       -0.29274058      -1.00419655      -0.09415481
C       -1.12334145       0.26506046      -0.47581366
C        0.15656539       1.05877625      -0.48505262
C        0.99841072      -0.13873556      -0.28345295
O        2.06387492      -0.12848248       0.42456530
H       -1.08173351      -2.11783687       1.28331189
H       -0.37997583      -1.83965215      -0.79514356
H       -1.70606133       0.25363552      -1.39803163
H       -1.76896596       0.56142157       0.35170936
H        0.38872647       2.04301330      -0.87740779
H        0.71099028       1.50723739       1.24249605
H        1.07062861       0.00948314      -1.47768774
H        1.40058231       0.94207282       1.35112971
14
Frame=4 idx=002696 GeodesicLength=0.35143447173924447 rxn_smarts="[O:1]([C@@:2]1([H:8])[C:3]([H:9])([H:10])[C:4]([H:11])([H:12])[C@:5]1([O:6][H:14])[H:13])[H:7]>>[H:12][H:14].[O:1]([C@@:2]1([H:8])[C:3]([H:9])([H:10])[C:4]([H:11])([H:13])[C:5]1=[O:6])[H:7]"
O       -0.42827327      -1.40753201       1.23806745
C       -0.29087526      -1.00489780      -0.09267413
C       -1.12033599       0.26272350      -0.47603410
C        0.16133567       1.05775903      -0.49196555
C        1.00120838      -0.14681364      -0.29145105
O        2.06052052      -0.13573201       0.42813055
H       -1.08274462      -2.10404282       1.29533833
H       -0.38014643      -1.84220191      -0.79122419
H       -1.70067412       0.24391356      -1.39945111
H       -1.76732019       0.56489897       0.34817230
H        0.38834762       2.04528260      -0.87777897
H        0.70156449       1.50534798       1.23825826
H        1.06158589       0.04132819      -1.49590886
H        1.39580731       0.91996635       1.36852107
14
Frame=5 idx=002696 GeodesicLength=0.4393320415853617 rxn_smarts="[O:1]([C@@:2]1([H:8])[C:3]([H:9])([H:10])[C:4]([H:11])([H:12])[C@:5]1([O:6][H:14])[H:13])[H:7]>>[H:12][H:14].[O:1]([C@@:2]1([H:8])[C:3]([H:9])([H:10])[C:4]([H:11])([H:13])[C:5]1=[O:6])[H:7]"
O       -0.41962021      -1.40315829       1.24259590
C       -0.28896056      -1.00556300      -0.09115617
C       -1.11732093       0.26034846      -0.47641453
C        0.16601306       1.05684091      -0.49866276
C        1.00398616      -0.15486120      -0.29968809
O        2.05706354      -0.14309584       0.43145067
H       -1.08362772      -2.08993373       1.30744509
H       -0.38033687      -1.84478823      -0.78716678
H       -1.69509309       0.23416455      -1.40108701
H       -1.76589331       0.56822764       0.34429255
H        0.38769292       2.04767044      -0.87781547
H        0.69212072       1.50336697       1.23411990
H        1.05248672       0.07308873      -1.51353282
H        1.39148955       0.89769259       1.38561954
14
Frame=6 idx=002696 GeodesicLength=0.5272312665424888 rxn_smarts="[O:1]([C@@:2]1([H:8])[C:3]([H:9])([H:10])[C:4]([H:11])([H:12])[C@:5]1([O:6][H:14])[H:13])[H:7]>>[H:12][H:14].[O:1]([C@@:2]1([H:8])[C:3]([H:9])([H:10])[C:4]([H:11])([H:13])[C:5]1=[O:6])[H:7]"
O       -0.41102762      -1.39867935       1.24711060
C       -0.28701061      -1.00618979      -0.08959763
C       -1.11429721       0.25793514      -0.47694661
C        0.17060755       1.05601539      -0.50515502
C        1.00673371      -0.16287320      -0.30811391
O        2.05351797      -0.15055597       0.43451925
H       -1.08437226      -2.07555189       1.31960132
H       -0.38055589      -1.84739771      -0.78297420
H       -1.68932151       0.22439270      -1.40292132
H       -1.76467416       0.57140969       0.34007523
H        0.38678113       2.05015246      -0.87755033
H        0.68261702       1.50135596       1.23005115
H        1.04332066       0.10475594      -1.53055863
H        1.38768121       0.87523062       1.40246010
14
Frame=7 idx=002696 GeodesicLength=0.6151378037904924 rxn_smarts="[O:1]([C@@:2]1([H:8])[C:3]([H:9])([H:10])[C:4]([H:11])([H:12])[C@:5]1([O:6][H:14])[H:13])[H:7]>>[H:12][H:14].[O:1]([C@@:2]1([H:8])[C:3]([H:9])([H:10])[C:4]([H:11])([H:13])[C:5]1=[O:6])[H:7]"
O       -0.40250948      -1.39410166       1.25161334
C       -0.28503265      -1.00677806      -0.08799633
C       -1.11127120       0.25548547      -0.47762609
C        0.17512549       1.05527503      -0.51145704
C        1.00943665      -0.17085368      -0.31668429
O        2.04990764      -0.15810681       0.43733328
H       -1.08498089      -2.06091585       1.33178488
H       -0.38079798      -1.85002297      -0.77864941
H       -1.68337014       0.21460613      -1.40494775
H       -1.76366398       0.57444779       0.33552886
H        0.38562690       2.05270987      -0.87700768
H        0.67299371       1.49936303       1.22603615
H        1.03408435       0.13632569      -1.54701071
H        1.38445157       0.85256603       1.41908278
14
Frame=8 idx=002696 GeodesicLength=0.7030495822827162 rxn_smarts="[O:1]([C@@:2]1([H:8])[C:3]([H:9])([H:10])[C:4]([H:11])([H:12])[C@:5]1([O:6][H:14])[H:13])[H:7]>>[H:12][H:14].[O:1]([C@@:2]1([H:8])[C:3]([H:9])([H:10])[C:4]([H:11])([H:13])[C:5]1=[O:6])[H:7]"
O       -0.39406385      -1.38941835       1.25610969
C       -0.28302548      -1.00732974      -0.08635005
C       -1.10824077       0.25299479      -0.47845989
C        0.17957018       1.05461851      -0.51757511
C        1.01208919      -0.17879958      -0.32537674
O        2.04625629      -0.16573706       0.43986280
H       -1.08547503      -2.04599392       1.34400981
H       -0.38105075      -1.85267317      -0.77418440
H       -1.67722804       0.20478592      -1.40717553
H       -1.76286317       0.57734275       0.33063932
H        0.38422764       2.05534191      -0.87618316
H        0.66321267       1.49742786       1.22206396
H        1.02475378       0.16782156      -1.56292466
H        1.38183735       0.82961852       1.43554398
14
Frame=9 idx=002696 GeodesicLength=0.790970091999733 rxn_smarts="[O:1]([C@@:2]1([H:8])[C:3]([H:9])([H:10])[C:4]([H:11])([H:12])[C@:5]1([O:6][H:14])[H:13])[H:7]>>[H:12][H:14].[O:1]([C@@:2]1([H:8])[C:3]([H:9])([H:10])[C:4]([H:11])([H:13])[C:5]1=[O:6])[H:7]"
O       -0.38570025      -1.38463923       1.26059744
C       -0.28099265      -1.00784471      -0.08465723
C       -1.10521003       0.25046405      -0.47944134
C        0.18394725       1.05403765      -0.52352596
C        1.01468266      -0.18671520      -0.33415240
O        2.04258687      -0.17343836       0.44210802
H       -1.08586717      -2.03079146       1.35625201
H       -0.38130352      -1.85534179      -0.76958117
H       -1.67090572       0.19493899      -1.40958944
H       -1.76226936       0.58009820       0.32541725
H        0.38259359       2.05803068      -0.87510064
H        0.65321023       1.49560000       1.21810819
H        1.01532475       0.19924273      -1.57832209
H        1.37990335       0.80635846       1.45188736
14
Frame=10 idx=002696 GeodesicLength=0.87889521039824 rxn_smarts="[O:1]([C@@:2]1([H:8])[C:3]([H:9])([H:10])[C:4]([H:11])([H:12])[C@:5]1([O:6][H:14])[H:13])[H:7]>>[H:12][H:14].[O:1]([C@@:2]1([H:8])[C:3]([H:9])([H:10])[C:4]([H:11])([H:13])[C:5]1=[O:6])[H:7]"
O       -0.37742065      -1.37974476       1.26508492
C       -0.27893811      -1.00831957      -0.08291474
C       -1.10217753       0.24788943      -0.48057965
C        0.18826274       1.05352902      -0.52932001
C        1.01720891      -0.19459965      -0.34299020
O        2.03891867      -0.18119226       0.44405635
H       -1.08615225      -2.01529521       1.36852085
H       -0.38155708      -1.85802851      -0.76483160
H       -1.66439690       0.18504553      -1.41220321
H       -1.76187846       0.58271429       0.31984544
H        0.38072340       2.06077241      -0.87376345
H        0.64296950       1.49393073       1.21414712
H        1.00576550       0.23061413      -1.59323857
H        1.37867226       0.78268439       1.46818675
14
Frame=11 idx=002696 GeodesicLength=0.966832205533382 rxn_smarts="[O:1]([C@@:2]1([H:8])[C:3]([H:9])([H:10])[C:4]([H:11])([H:12])[C@:5]1([O:6][H:14])[H:13])[H:7]>>[H:12][H:14].[O:1]([C@@:2]1([H:8])[C:3]([H:9])([H:10])[C:4]([H:11])([H:13])[C:5]1=[O:6])[H:7]"
O       -0.36923579      -1.37474327       1.26957870
C       -0.27686381      -1.00875519      -0.08111716
C       -1.09914595       0.24527437      -0.48187347
C        0.19252206       1.05308985      -0.53497332
C        1.01966569      -0.20245207      -0.35185868
O        2.03527533      -0.18899693       0.44570880
H       -1.08634503      -1.99950949       1.38080741
H       -0.38179948      -1.86073328      -0.75993315
H       -1.65770355       0.17511035      -1.41501183
H       -1.76169540       0.58519626       0.31392319
H        0.37862322       2.06355922      -0.87218817
H        0.63241768       1.49246536       1.21015947
H        0.99606331       0.26194578      -1.60769884
H        1.37822172       0.75854905       1.48447706
14
Frame=12 idx=002696 GeodesicLength=1.0547823555944495 rxn_smarts="[O:1]([C@@:2]1([H:8])[C:3]([H:9])([H:10])[C:4]([H:11])([H:12])[C@:5]1([O:6][H:14])[H:13])[H:7]>>[H:12][H:14].[O:1]([C@@:2]1([H:8])[C:3]([H:9])([H:10])[C:4]([H:11])([H:13])[C:5]1=[O:6])[H:7]"
O       -0.36114246      -1.36961856       1.27408421
C       -0.27476947      -1.00914911      -0.07926278
C       -1.09611384       0.24261412      -0.48333083
C        0.19673097       1.05271682      -0.54049773
C        1.02204858      -0.21027287      -0.36074239
O        2.03167859      -0.19683445       0.44705422
H       -1.08645346      -1.98340345       1.39312380
H       -0.38202338      -1.86345895      -0.75487651
H       -1.65081933       0.16511490      -1.41802403
H       -1.76171738       0.58754343       0.30763714
H        0.37628572       2.06638891      -0.87037865
H        0.62152524       1.49125605       1.20612000
H        0.98619008       0.29326696      -1.62174008
H        1.37858013       0.73383620       1.50083362
14
Frame=13 idx=002696 GeodesicLength=1.1427432672166868 rxn_smarts="[O:1]([C@@:2]1([H:8])[C:3]([H:9])([H:10])[C:4]([H:11])([H:12])[C@:5]1([O:6][H:14])[H:13])[H:7]>>[H:12][H:14].[O:1]([C@@:2]1([H:8])[C:3]([H:9])([H:10])[C:4]([H:11])([H:13])[C:5]1=[O:6])[H:7]"
O       -0.35314802      -1.36437219       1.27860363
C       -0.27265571      -1.00949709      -0.07734682
C       -1.09308232       0.23991228      -0.48494763
C        0.20089660       1.05240360      -0.54591363
C        1.02435658      -0.21806292      -0.36961078
O        2.02814936      -0.20469369       0.44810173
H       -1.08648359      -1.96697704       1.40545360
H       -0.38221593      -1.86619756      -0.74965830
H       -1.64375031       0.15506478      -1.42122794
H       -1.76193950       0.58976302       0.30099224
H        0.37371615       2.06924672      -0.86835971
H        0.61021746       1.49035640       1.20199562
H        0.97612859       0.32458448      -1.63538759
H        1.37981066       0.70846920       1.51730559
14
Frame=14 idx=002696 GeodesicLength=1.2307180241221662 rxn_smarts="[O:1]([C@@:2]1([H:8])[C:3]([H:9])([H:10])[C:4]([H:11])([H:12])[C@:5]1([O:6][H:14])[H:13])[H:7]>>[H:12][H:14].[O:1]([C@@:2]1([H:8])[C:3]([H:9])([H:10])[C:4]([H:11])([H:13])[C:5]1=[O:6])[H:7]"
O       -0.34525024      -1.35898144       1.28314519
C       -0.27052181      -1.00979629      -0.07536502
C       -1.09004609       0.23716375      -0.48673798
C        0.20502259       1.05214962      -0.55122953
C        1.02658516      -0.22581959      -0.37845028
O        2.02470292      -0.21256303       0.44884312
H       -1.08644024      -1.95019266       1.41781439
H       -0.38237234      -1.86895658      -0.74426505
H       -1.63647965       0.14493550      -1.42463991
H       -1.76236071       0.59185374       0.29395948
H        0.37089897       2.07213531      -0.86612577
H        0.59845624       1.48982329       1.19776118
H        0.96583809       0.35593671      -1.64867153
H        1.38196710       0.68231167       1.53396171
14
Frame=15 idx=002696 GeodesicLength=1.3187044954417395 rxn_smarts="[O:1]([C@@:2]1([H:8])[C:3]([H:9])([H:10])[C:4]([H:11])([H:12])[C@:5]1([O:6][H:14])[H:13])[H:7]>>[H:12][H:14].[O:1]([C@@:2]1([H:8])[C:3]([H:9])([H:10])[C:4]([H:11])([H:13])[C:5]1=[O:6])[H:7]"
O       -0.33745890      -1.35344227       1.28771713
C       -0.26836879      -1.01003903      -0.07330991
C       -1.08700775       0.23437001      -0.48870162
C        0.20911767       1.05194950      -0.55646859
C        1.02873731      -0.23353926      -0.38723209
O        2.02136292      -0.22042630       0.44929130
H       -1.08633083      -1.93304959       1.43019605
H       -0.38248245      -1.87172303      -0.73868910
H       -1.62901458       0.13472965      -1.42825302
H       -1.76298337       0.59381501       0.28653748
H        0.36783808       2.07504220      -0.86370265
H        0.58616342       1.48971636       1.19337617
H        0.95530005       0.38734080      -1.66162038
H        1.38512723       0.65525595       1.55085921
14
Frame=16 idx=002696 GeodesicLength=1.4067090571159475 rxn_smarts="[O:1]([C@@:2]1([H:8])[C:3]([H:9])([H:10])[C:4]([H:11])([H:12])[C@:5]1([O:6][H:14])[H:13])[H:7]>>[H:12][H:14].[O:1]([C@@:2]1([H:8])[C:3]([H:9])([H:10])[C:4]([H:11])([H:13])[C:5]1=[O:6])[H:7]"
O       -0.32977689      -1.34773419       1.29233118
C       -0.26619550      -1.01021919      -0.07117423
C       -1.08396550       0.23153263      -0.49084848
C        0.21318639       1.05180344      -0.56164805
C        1.03081231      -0.24122020      -0.39593597
O        2.01814814      -0.22827159       0.44945304
H       -1.08615319      -1.91553032       1.44260284
H       -0.38253657      -1.87449853      -0.73291773
H       -1.62134849       0.12443474      -1.43207698
H       -1.76380788       0.59565449       0.27870597
H        0.36452147       2.07796629      -0.86110421
H        0.57327129       1.49010805       1.18880688
H        0.94447704       0.41882455      -1.67426393
H        1.38936736       0.62714982       1.56806968
