14
Frame=0 idx=010536 GeodesicLength=0.0 rxn_smarts="[O:1]([C:2]1([C:3]([C:4]#[N:5])([H:9])[H:10])[C:6]([H:11])([H:12])[C:7]1([H:13])[H:14])[H:8]>>[O:1]([C:2]([C:3]([C-:4]=[N+:5]=[C:7]([H:13])[H:14])([H:9])[H:10])=[C:6]([H:11])[H:12])[H:8]"
O       -0.38018107       1.65275550      -0.37723537
C       -0.32838327       0.27046368      -0.32767279
C        1.06146704      -0.30661576      -0.81014859
C        1.97346609      -0.32253745       0.41910194
N        1.28229139      -0.19912509       1.42093550
C       -1.45293769      -0.35647819      -0.78814905
C       -0.09246920      -0.12848660       1.47944252
H        0.44794087       2.00941390      -0.04633644
H        0.96943159      -1.33797827      -1.15738962
H        1.42073776       0.29466587      -1.64628765
H       -2.33235008       0.20378783      -1.07996640
H       -1.48243777      -1.43573575      -0.83688210
H       -0.56788506      -1.07021383       1.74898680
H       -0.51869061       0.72608422       2.00160127
14
Frame=1 idx=010536 GeodesicLength=0.10998410389287293 rxn_smarts="[O:1]([C:2]1([C:3]([C:4]#[N:5])([H:9])[H:10])[C:6]([H:11])([H:12])[C:7]1([H:13])[H:14])[H:8]>>[O:1]([C:2]([C:3]([C-:4]=[N+:5]=[C:7]([H:13])[H:14])([H:9])[H:10])=[C:6]([H:11])[H:12])[H:8]"
O       -0.37311129       1.65650211      -0.38899671
C       -0.32376342       0.27470933      -0.34311452
C        1.06194211      -0.30729737      -0.81695173
C        1.97155673      -0.32074619       0.41134609
N        1.29737574      -0.19846985       1.42204072
C       -1.45851959      -0.35937968      -0.77030589
C       -0.10717549      -0.12713504       1.48406935
H        0.44878457       2.00899454      -0.03826310
H        0.96680280      -1.33802700      -1.16437391
H        1.43213591       0.29277433      -1.64920512
H       -2.33408911       0.20058519      -1.07437236
H       -1.47704201      -1.43708551      -0.84895956
H       -0.57382836      -1.06979441       1.76425702
H       -0.53106859       0.72436955       2.01282971
14
Frame=2 idx=010536 GeodesicLength=0.2199701676273602 rxn_smarts="[O:1]([C:2]1([C:3]([C:4]#[N:5])([H:9])[H:10])[C:6]([H:11])([H:12])[C:7]1([H:13])[H:14])[H:8]>>[O:1]([C:2]([C:3]([C-:4]=[N+:5]=[C:7]([H:13])[H:14])([H:9])[H:10])=[C:6]([H:11])[H:12])[H:8]"
O       -0.36596325       1.66000269      -0.40094091
C       -0.31924482       0.27867695      -0.35890874
C        1.06254507      -0.30805345      -0.82373639
C        1.96967296      -0.31884060       0.40366731
N        1.31305132      -0.19740405       1.42317637
C       -1.46344831      -0.36224517      -0.75284084
C       -0.12244945      -0.12572949       1.48865946
H        0.44919968       2.00823408      -0.03036362
H        0.96444847      -1.33820864      -1.17120129
H        1.44369596       0.29058544      -1.65209578
H       -2.33596825       0.19730306      -1.06757736
H       -1.47223565      -1.43745059      -0.86188163
H       -0.57952578      -1.06945422       1.77973850
H       -0.54377795       0.72258399       2.02430491
14
Frame=3 idx=010536 GeodesicLength=0.3299748571287472 rxn_smarts="[O:1]([C:2]1([C:3]([C:4]#[N:5])([H:9])[H:10])[C:6]([H:11])([H:12])[C:7]1([H:13])[H:14])[H:8]>>[O:1]([C:2]([C:3]([C-:4]=[N+:5]=[C:7]([H:13])[H:14])([H:9])[H:10])=[C:6]([H:11])[H:12])[H:8]"
O       -0.35866530       1.66325749      -0.41320331
C       -0.31475713       0.28237130      -0.37518904
C        1.06337870      -0.30889186      -0.83050114
C        1.96780223      -0.31682773       0.39614991
N        1.32925296      -0.19591993       1.42436397
C       -1.46759405      -0.36508754      -0.73609918
C       -0.13844028      -0.12425977       1.49309246
H        0.44921160       2.00712634      -0.02270389
H        0.96250998      -1.33853327      -1.17787724
H        1.45559592       0.28808783      -1.65492271
H       -2.33823803       0.19395336      -1.05853393
H       -1.46797052      -1.43685977      -0.87574163
H       -0.58513725      -1.06915509       1.79526062
H       -0.55694883       0.72073865       2.03590510
14
Frame=4 idx=010536 GeodesicLength=0.4399950991167946 rxn_smarts="[O:1]([C:2]1([C:3]([C:4]#[N:5])([H:9])[H:10])[C:6]([H:11])([H:12])[C:7]1([H:13])[H:14])[H:8]>>[O:1]([C:2]([C:3]([C-:4]=[N+:5]=[C:7]([H:13])[H:14])([H:9])[H:10])=[C:6]([H:11])[H:12])[H:8]"
O       -0.35118997       1.66626537      -0.42583014
C       -0.31026890       0.28579567      -0.39201058
C        1.06447955      -0.30981663      -0.83724547
C        1.96593673      -0.31470679       0.38882371
N        1.34597664      -0.19400102       1.42561299
C       -1.47090816      -0.36792356      -0.72026425
C       -0.15523523      -0.12272155       1.49730927
H        0.44881023       2.00566599      -0.01531346
H        0.96104187      -1.33900738      -1.18440171
H        1.46789298       0.28527572      -1.65767036
H       -2.34092473       0.19056966      -1.04678529
H       -1.46424547      -1.43535350      -0.89055627
H       -0.59073565      -1.06887163       1.81073325
H       -0.57062989       0.71882965       2.04759831
14
Frame=5 idx=010536 GeodesicLength=0.5500339522931768 rxn_smarts="[O:1]([C:2]1([C:3]([C:4]#[N:5])([H:9])[H:10])[C:6]([H:11])([H:12])[C:7]1([H:13])[H:14])[H:8]>>[O:1]([C:2]([C:3]([C-:4]=[N+:5]=[C:7]([H:13])[H:14])([H:9])[H:10])=[C:6]([H:11])[H:12])[H:8]"
O       -0.34355658       1.66902059      -0.43878523
C       -0.30578698       0.28894806      -0.40935321
C        1.06582626      -0.31082918      -0.84396410
C        1.96407521      -0.31246994       0.38167375
N        1.36328404      -0.19162215       1.42691930
C       -1.47340844      -0.37078307      -0.70536575
C       -0.17286032      -0.12111659       1.50131765
H        0.44796033       2.00384541      -0.00818456
H        0.96002734      -1.33963484      -1.19076635
H        1.48053746       0.28214866      -1.66034101
H       -2.34391412       0.18722512      -1.03247175
H       -1.46109648      -1.43297975      -0.90626724
H       -0.59630586      -1.06859259       1.82614743
H       -0.58478185       0.71684026       2.05944107
14
Frame=6 idx=010536 GeodesicLength=0.6601064504815052 rxn_smarts="[O:1]([C:2]1([C:3]([C:4]#[N:5])([H:9])[H:10])[C:6]([H:11])([H:12])[C:7]1([H:13])[H:14])[H:8]>>[O:1]([C:2]([C:3]([C-:4]=[N+:5]=[C:7]([H:13])[H:14])([H:9])[H:10])=[C:6]([H:11])[H:12])[H:8]"
O       -0.33579717       1.67152254      -0.45200368
C       -0.30133388       0.29183248      -0.42717156
C        1.06737191      -0.31192669      -0.85065476
C        1.96221194      -0.31011469       0.37466874
N        1.38126333      -0.18876123       1.42827102
C       -1.47514572      -0.37368209      -0.69137487
C       -0.19132576      -0.11944853       1.50514690
H        0.44662424       2.00165731      -0.00128531
H        0.95941233      -1.34041394      -1.19696724
H        1.49344171       0.27871275      -1.66294452
H       -2.34701478       0.18396656      -1.01596568
H       -1.45857003      -1.42978664      -0.92276776
H       -0.60180567      -1.06830701       1.84152231
H       -0.59933246       0.71474917       2.07152642
14
Frame=7 idx=010536 GeodesicLength=0.7702314487836747 rxn_smarts="[O:1]([C:2]1([C:3]([C:4]#[N:5])([H:9])[H:10])[C:6]([H:11])([H:12])[C:7]1([H:13])[H:14])[H:8]>>[O:1]([C:2]([C:3]([C-:4]=[N+:5]=[C:7]([H:13])[H:14])([H:9])[H:10])=[C:6]([H:11])[H:12])[H:8]"
O       -0.32794358       1.67377475      -0.46541177
C       -0.29693346       0.29445631      -0.44541712
C        1.06906802      -0.31310391      -0.85731438
C        1.96034053      -0.30764265       0.36777605
N        1.40001001      -0.18539355       1.42965104
C       -1.47617473      -0.37663238      -0.67825695
C       -0.21064822      -0.11772656       1.50882776
H        0.44477423       1.99909375       0.00542370
H        0.95913726      -1.34133872      -1.20300109
H        1.50651730       0.27497628      -1.66548984
H       -2.35005944       0.18084007      -0.99770836
H       -1.45670375      -1.42582380      -0.93990660
H       -0.60718436      -1.06800695       1.85687714
H       -0.61419982       0.71252735       2.08395041
14
Frame=8 idx=010536 GeodesicLength=0.8804158933286192 rxn_smarts="[O:1]([C:2]1([C:3]([C:4]#[N:5])([H:9])[H:10])[C:6]([H:11])([H:12])[C:7]1([H:13])[H:14])[H:8]>>[O:1]([C:2]([C:3]([C-:4]=[N+:5]=[C:7]([H:13])[H:14])([H:9])[H:10])=[C:6]([H:11])[H:12])[H:8]"
O       -0.32002453       1.67578158      -0.47893297
C       -0.29261190       0.29682721      -0.46403879
C        1.07086182      -0.31435841      -0.86393619
C        1.95845244      -0.30505842       0.36096614
N        1.41962713      -0.18148975       1.43103601
C       -1.47655515      -0.37964126      -0.66596102
C       -0.23084195      -0.11595406       1.51239883
H        0.44238006       1.99614693       0.01198217
H        0.95913595      -1.34240679      -1.20886128
H        1.51967339       0.27094551      -1.66798749
H       -2.35288533       0.17787997      -0.97817358
H       -1.45552767      -1.42112873      -0.95754375
H       -0.61238774      -1.06768819       1.87223226
H       -0.62929650       0.71014440       2.09681966
14
Frame=9 idx=010536 GeodesicLength=0.9906256284133121 rxn_smarts="[O:1]([C:2]1([C:3]([C:4]#[N:5])([H:9])[H:10])[C:6]([H:11])([H:12])[C:7]1([H:13])[H:14])[H:8]>>[O:1]([C:2]([C:3]([C-:4]=[N+:5]=[C:7]([H:13])[H:14])([H:9])[H:10])=[C:6]([H:11])[H:12])[H:8]"
O       -0.31207363       1.67754765      -0.49247425
C       -0.28840259       0.29895423      -0.48296653
C        1.07268950      -0.31569119      -0.87050799
C        1.95654441      -0.30235634       0.35420346
N        1.44022976      -0.17700764       1.43241141
C       -1.47637099      -0.38271032      -0.65438356
C       -0.25190337      -0.11414010       1.51592905
H        0.43940389       1.99280288       0.01843757
H        0.95932731      -1.34362091      -1.21452304
H        1.53279714       0.26661398      -1.67045577
H       -2.35533610       0.17513158      -0.95800720
H       -1.45508218      -1.41572597      -0.97553605
H       -0.61731072      -1.06733963       1.88761450
H       -0.64451243       0.70754180       2.11025840
14
Frame=10 idx=010536 GeodesicLength=1.1009188918906818 rxn_smarts="[O:1]([C:2]1([C:3]([C:4]#[N:5])([H:9])[H:10])[C:6]([H:11])([H:12])[C:7]1([H:13])[H:14])[H:8]>>[O:1]([C:2]([C:3]([C-:4]=[N+:5]=[C:7]([H:13])[H:14])([H:9])[H:10])=[C:6]([H:11])[H:12])[H:8]"
O       -0.30408459       1.67908952      -0.50600412
C       -0.28430624       0.30085755      -0.50220210
C        1.07453584      -0.31709634      -0.87702715
C        1.95459190      -0.29956416       0.34749496
N        1.46190585      -0.17191408       1.43373866
C       -1.47564591      -0.38581770      -0.64358228
C       -0.27392068      -0.11229121       1.51939518
H        0.43585478       1.98905724       0.02482188
H        0.95968580      -1.34497189      -1.21999647
H        1.54587835       0.26199453      -1.67288295
H       -2.35737557       0.17260165      -0.93732449
H       -1.45534501      -1.40968478      -0.99371675
H       -0.62196575      -1.06695903       1.90298049
H       -0.65980876       0.70469870       2.12430516
14
Frame=11 idx=010536 GeodesicLength=1.2112810933372589 rxn_smarts="[O:1]([C:2]1([C:3]([C:4]#[N:5])([H:9])[H:10])[C:6]([H:11])([H:12])[C:7]1([H:13])[H:14])[H:8]>>[O:1]([C:2]([C:3]([C-:4]=[N+:5]=[C:7]([H:13])[H:14])([H:9])[H:10])=[C:6]([H:11])[H:12])[H:8]"
O       -0.29606441       1.68042053      -0.51946304
C       -0.28033747       0.30255618      -0.52171479
C        1.07636412      -0.31857242      -0.88348479
C        1.95257765      -0.29669793       0.34083327
N        1.48475759      -0.16616784       1.43498605
C       -1.47443726      -0.38894234      -0.63353272
C       -0.29694807      -0.11041829       1.52281860
H        0.43172900       1.98489764       0.03118011
H        0.96016035      -1.34645492      -1.22527639
H        1.55886488       0.25709074      -1.67526939
H       -2.35894116       0.17031379      -0.91649379
H       -1.45630832      -1.40306552      -1.01192704
H       -0.62630540      -1.06653358       1.91831178
H       -0.67511149       0.70157396       2.13903215
14
Frame=12 idx=010536 GeodesicLength=1.3217147472917303 rxn_smarts="[O:1]([C:2]1([C:3]([C:4]#[N:5])([H:9])[H:10])[C:6]([H:11])([H:12])[C:7]1([H:13])[H:14])[H:8]>>[O:1]([C:2]([C:3]([C-:4]=[N+:5]=[C:7]([H:13])[H:14])([H:9])[H:10])=[C:6]([H:11])[H:12])[H:8]"
O       -0.28800995       1.68155370      -0.53280299
C       -0.27650475       0.30406689      -0.54148653
C        1.07814465      -0.32012147      -0.88986718
C        1.95048116      -0.29377415       0.33422402
N        1.50889483      -0.15971134       1.43611662
C       -1.47279659      -0.39205994      -0.62422786
C       -0.32105990      -0.10852582       1.52620778
H        0.42701602       1.98031106       0.03754877
H        0.96070717      -1.34807253      -1.23034574
H        1.57172242       0.25189409      -1.67760897
H       -2.35998841       0.16828883      -0.89577104
H       -1.45795736      -1.39591748      -1.03005105
H       -0.63029088      -1.06605523       1.93356892
H       -0.69035841       0.69812339       2.15449525
14
Frame=13 idx=010536 GeodesicLength=1.4322048144407278 rxn_smarts="[O:1]([C:2]1([C:3]([C:4]#[N:5])([H:9])[H:10])[C:6]([H:11])([H:12])[C:7]1([H:13])[H:14])[H:8]>>[O:1]([C:2]([C:3]([C-:4]=[N+:5]=[C:7]([H:13])[H:14])([H:9])[H:10])=[C:6]([H:11])[H:12])[H:8]"
O       -0.27991756       1.68250162      -0.54597094
C       -0.27281729       0.30540869      -0.56149353
C        1.07984718      -0.32174700      -0.89615581
C        1.94827983      -0.29081186       0.32767848
N        1.53443629      -0.15247771       1.43708602
C       -1.47078017      -0.39513948      -0.61565532
C       -0.34633733      -0.10662446       1.52957486
H        0.42171526       1.97528260       0.04397030
H        0.96128181      -1.34982688      -1.23518426
H        1.58441637       0.24639667      -1.67989131
H       -2.36050470       0.16655672      -0.87544763
H       -1.46026959      -1.38829981      -1.04795622
H       -0.63387119      -1.06551459       1.94870490
H       -0.70547889       0.69429550       2.17074046
14
Frame=14 idx=010536 GeodesicLength=1.5427555519608616 rxn_smarts="[O:1]([C:2]1([C:3]([C:4]#[N:5])([H:9])[H:10])[C:6]([H:11])([H:12])[C:7]1([H:13])[H:14])[H:8]>>[O:1]([C:2]([C:3]([C-:4]=[N+:5]=[C:7]([H:13])[H:14])([H:9])[H:10])=[C:6]([H:11])[H:12])[H:8]"
O       -0.27177753       1.68327290      -0.55892299
C       -0.26927952       0.30659638      -0.58172118
C        1.08144706      -0.32345652      -0.90232827
C        1.94594691      -0.28783355       0.32122103
N        1.56151152      -0.14438668       1.43784041
C       -1.46844037      -0.39815038      -0.60781685
C       -0.37288596      -0.10472302       1.53291900
H        0.41581780       1.96979341       0.05048562
H        0.96184580      -1.35172658      -1.23976385
H        1.59692706       0.24058097      -1.68209776
H       -2.36048479       0.16513683      -0.85570310
H       -1.46321754      -1.38025912      -1.06557536
H       -0.63700340      -1.06489191       1.96366076
H       -0.72040703       0.69004726       2.18780254
14
Frame=15 idx=010536 GeodesicLength=1.6533408657703796 rxn_smarts="[O:1]([C:2]1([C:3]([C:4]#[N:5])([H:9])[H:10])[C:6]([H:11])([H:12])[C:7]1([H:13])[H:14])[H:8]>>[O:1]([C:2]([C:3]([C-:4]=[N+:5]=[C:7]([H:13])[H:14])([H:9])[H:10])=[C:6]([H:11])[H:12])[H:8]"
O       -0.26357827       1.68387562      -0.57161293
C       -0.26589401       0.30764632      -0.60215251
C        1.08292090      -0.32525961      -0.90835682
C        1.94345569      -0.28485996       0.31488131
N        1.59025605      -0.13534804       1.43832083
C       -1.46583272      -0.40105818      -0.60070996
C       -0.40081718      -0.10283505       1.53624144
H        0.40932091       1.96382189       0.05713705
H        0.96236194      -1.35378150      -1.24404905
H        1.60923686       0.23442518      -1.68420644
H       -2.35994338       0.16405517      -0.83671105
H       -1.46677082      -1.37184261      -1.08284257
H       -0.63963664      -1.06416812       1.97836485
H       -0.73507934       0.68532891       2.20569583
14
Frame=16 idx=010536 GeodesicLength=1.7639517056385128 rxn_smarts="[O:1]([C:2]1([C:3]([C:4]#[N:5])([H:9])[H:10])[C:6]([H:11])([H:12])[C:7]1([H:13])[H:14])[H:8]>>[O:1]([C:2]([C:3]([C-:4]=[N+:5]=[C:7]([H:13])[H:14])([H:9])[H:10])=[C:6]([H:11])[H:12])[H:8]"
O       -0.25530856       1.68431118      -0.58398981
C       -0.26266435       0.30856895      -0.62276789
C        1.08424562      -0.32717149      -0.91420418
C        1.94077471      -0.28191519       0.30870245
N        1.62083166      -0.12524495       1.43844897
C       -1.46301648      -0.40383186      -0.59432966
C       -0.43026005      -0.10097559       1.53954540
H        0.40221273       1.95734311       0.06397029
H        0.96279331      -1.35600916      -1.24799006
H        1.62133050       0.22789668      -1.68618502
H       -2.35890319       0.16334332      -0.81862712
H       -1.47090375      -1.36308322      -1.09973585
H       -0.64170935      -1.06332068       1.99273543
H       -0.74942280       0.68008891       2.22442705
