16
Frame=0 idx=003256 GeodesicLength=0.0 rxn_smarts="[C:1]([C@@:2]1([H:10])[C:3]([H:11])([H:12])[C:4]([H:13])([H:14])[O:5][C:6]1([H:15])[H:16])([H:7])([H:8])[H:9]>>[C:1]([C:2]1=[C:6]([H:16])[O:5][C:4]([H:13])([H:14])[C:3]1([H:11])[H:12])([H:7])([H:8])[H:9].[H:10][H:15]"
C        1.99478842       0.02149021      -0.06208315
C        0.50340240       0.13341909       0.03351025
C       -0.41893120       0.02198354      -1.16466249
C       -1.76383586      -0.26335969      -0.49947012
O       -1.44397900      -0.81518577       0.80545513
C       -0.24081666      -0.42453273       1.11247974
H        2.40470113       0.80693481      -0.69950839
H        2.46154680       0.13063846       0.91958392
H        2.31846033      -0.94089834      -0.47759498
H        0.01493131       1.04986178       0.92137651
H       -0.47066979       0.93270681      -1.76553428
H       -0.11617743      -0.79628245      -1.82938603
H       -2.39780897      -0.98641512      -1.00692493
H       -2.32374365       0.65397343      -0.30182633
H       -0.66515227       1.23663532       1.94974710
H        0.14328444      -0.76096928       2.06483806
16
Frame=1 idx=003256 GeodesicLength=0.08328134715935474 rxn_smarts="[C:1]([C@@:2]1([H:10])[C:3]([H:11])([H:12])[C:4]([H:13])([H:14])[O:5][C:6]1([H:15])[H:16])([H:7])([H:8])[H:9]>>[C:1]([C:2]1=[C:6]([H:16])[O:5][C:4]([H:13])([H:14])[C:3]1([H:11])[H:12])([H:7])([H:8])[H:9].[H:10][H:15]"
C        1.99288180       0.01960148      -0.06234750
C        0.50205203       0.14287842       0.03803118
C       -0.41832364       0.02375041      -1.16101992
C       -1.76442384      -0.26457792      -0.49969853
O       -1.44975327      -0.80559022       0.80932310
C       -0.24161060      -0.41457152       1.11780131
H        2.40538579       0.79890362      -0.70577393
H        2.46533377       0.12861753       0.91651612
H        2.30775219      -0.94685672      -0.47461427
H        0.01528286       1.08943096       0.92524676
H       -0.46822671       0.93337039      -1.76380989
H       -0.11272876      -0.79516774      -1.82332401
H       -2.38765168      -0.99723003      -1.00751437
H       -2.33435569       0.64945185      -0.31591434
H       -0.66565914       1.22302320       1.95410170
H        0.15404490      -0.78503370       2.05299661
16
Frame=2 idx=003256 GeodesicLength=0.16649855479449807 rxn_smarts="[C:1]([C@@:2]1([H:10])[C:3]([H:11])([H:12])[C:4]([H:13])([H:14])[O:5][C:6]1([H:15])[H:16])([H:7])([H:8])[H:9]>>[C:1]([C:2]1=[C:6]([H:16])[O:5][C:4]([H:13])([H:14])[C:3]1([H:11])[H:12])([H:7])([H:8])[H:9].[H:10][H:15]"
C        1.99087805       0.01785243      -0.06240289
C        0.50064885       0.15199658       0.04273708
C       -0.41775280       0.02541563      -1.15718632
C       -1.76505099      -0.26585719      -0.49976481
O       -1.45576373      -0.79602771       0.81328426
C       -0.24229383      -0.40551013       1.12318791
H        2.40570113       0.79137809      -0.71144827
H        2.46892377       0.12642015       0.91370158
H        2.29724738      -0.95232932      -0.47176631
H        0.01558136       1.12928063       0.92906073
H       -0.46577135       0.93401642      -1.76176064
H       -0.10938084      -0.79408296      -1.81716757
H       -2.37749565      -1.00797188      -1.00777946
H       -2.34481912       0.64467132      -0.32991143
H       -0.66466238       1.21027918       1.95706291
H        0.16401016      -0.80953124       2.04015322
16
Frame=3 idx=003256 GeodesicLength=0.24966885585683884 rxn_smarts="[C:1]([C@@:2]1([H:10])[C:3]([H:11])([H:12])[C:4]([H:13])([H:14])[O:5][C:6]1([H:15])[H:16])([H:7])([H:8])[H:9]>>[C:1]([C:2]1=[C:6]([H:16])[O:5][C:4]([H:13])([H:14])[C:3]1([H:11])[H:12])([H:7])([H:8])[H:9].[H:10][H:15]"
C        1.98878684       0.01623313      -0.06225610
C        0.49919383       0.16076959       0.04763379
C       -0.41722002       0.02698670      -1.15316026
C       -1.76571794      -0.26720271      -0.49967057
O       -1.46201436      -0.78648128       0.81734598
C       -0.24285819      -0.39739004       1.12863182
H        2.40566761       0.78435573      -0.71654213
H        2.47232537       0.12403657       0.91113588
H        2.28695301      -0.95733703      -0.46906893
H        0.01583773       1.16945458       0.93280889
H       -0.46330858       0.93466019      -1.75937408
H       -0.10613288      -0.79301271      -1.81092608
H       -2.36733594      -1.01865641      -1.00771807
H       -2.35514020       0.63962567      -0.34382840
H       -0.66221373       1.19838759       1.95863437
H        0.17317744      -0.83442956       2.02635389
16
Frame=4 idx=003256 GeodesicLength=0.3328158369906654 rxn_smarts="[C:1]([C@@:2]1([H:10])[C:3]([H:11])([H:12])[C:4]([H:13])([H:14])[O:5][C:6]1([H:15])[H:16])([H:7])([H:8])[H:9]>>[C:1]([C:2]1=[C:6]([H:16])[O:5][C:4]([H:13])([H:14])[C:3]1([H:11])[H:12])([H:7])([H:8])[H:9].[H:10][H:15]"
C        1.98661650       0.01473224      -0.06191182
C        0.49768835       0.16919103       0.05272620
C       -0.41672717       0.02847188      -1.14894064
C       -1.76642514      -0.26862068      -0.49941723
O       -1.46850702      -0.77693627       0.82151405
C       -0.24329830      -0.39024682       1.13412696
H        2.40530417       0.77783342      -0.72106491
H        2.47554567       0.12145679       0.90881623
H        2.27687513      -0.96190070      -0.46653772
H        0.01605897       1.21000397       0.93648472
H       -0.46084440       0.93531937      -1.75663580
H       -0.10298485      -0.79193971      -1.80461071
H       -2.35716702      -1.02929998      -1.00732761
H       -2.36532582       0.63430561      -0.35767515
H       -0.65835588       1.18733409       1.95880921
H        0.18154681      -0.85970425       2.01164423
16
Frame=5 idx=003256 GeodesicLength=0.41594432388016433 rxn_smarts="[C:1]([C@@:2]1([H:10])[C:3]([H:11])([H:12])[C:4]([H:13])([H:14])[O:5][C:6]1([H:15])[H:16])([H:7])([H:8])[H:9]>>[C:1]([C:2]1=[C:6]([H:16])[O:5][C:4]([H:13])([H:14])[C:3]1([H:11])[H:12])([H:7])([H:8])[H:9].[H:10][H:15]"
C        1.98437471       0.01333943      -0.06137359
C        0.49613264       0.17725786       0.05802098
C       -0.41627613       0.02987996      -1.14452571
C       -1.76717330      -0.27011650      -0.49900526
O       -1.47524046      -0.76737292       0.82579551
C       -0.24361179      -0.38410491       1.13966771
H        2.40463041       0.77180556      -0.72502585
H        2.47859129       0.11867277       0.90674042
H        2.26701695      -0.96604241      -0.46418344
H        0.01625140       1.25098362       0.94008188
H       -0.45838519       0.93601083      -1.75353271
H       -0.09993581      -0.79084755      -1.79823015
H       -2.34698064      -1.03992128      -1.00660010
H       -2.37538656       0.62869953      -0.37146584
H       -0.65312798       1.17710295       1.95758122
H        0.18912048      -0.88534694       1.99605492
16
Frame=6 idx=003256 GeodesicLength=0.4990745103112467 rxn_smarts="[C:1]([C@@:2]1([H:10])[C:3]([H:11])([H:12])[C:4]([H:13])([H:14])[O:5][C:6]1([H:15])[H:16])([H:7])([H:8])[H:9]>>[C:1]([C:2]1=[C:6]([H:16])[O:5][C:4]([H:13])([H:14])[C:3]1([H:11])[H:12])([H:7])([H:8])[H:9].[H:10][H:15]"
C        1.98206822       0.01204186      -0.06064392
C        0.49452768       0.18496126       0.06352421
C       -0.41587001       0.03122131      -1.13991332
C       -1.76796325      -0.27169899      -0.49843515
O       -1.48221228      -0.75778107       0.83019373
C       -0.24379735      -0.37899173       1.14525082
H        2.40366171       0.76626563      -0.72842975
H        2.48146772       0.11567317       0.90490721
H        2.25738128      -0.96978308      -0.46201685
H        0.01641773       1.29244942       0.94360520
H       -0.45593981       0.93675715      -1.75004521
H       -0.09698575      -0.78971440      -1.79179718
H       -2.33676918      -1.05053836      -1.00553263
H       -2.38533079       0.62279225      -0.38520719
H       -0.64655825       1.16768667       1.95491755
H        0.19590231      -0.91134107       1.97962248
16
Frame=7 idx=003256 GeodesicLength=0.5822121324613044 rxn_smarts="[C:1]([C@@:2]1([H:10])[C:3]([H:11])([H:12])[C:4]([H:13])([H:14])[O:5][C:6]1([H:15])[H:16])([H:7])([H:8])[H:9]>>[C:1]([C:2]1=[C:6]([H:16])[O:5][C:4]([H:13])([H:14])[C:3]1([H:11])[H:12])([H:7])([H:8])[H:9].[H:10][H:15]"
C        1.97970518       0.01082530      -0.05972577
C        0.49287662       0.19228985       0.06924049
C       -0.41551148       0.03250688      -1.13510194
C       -1.76879457      -0.27337632      -0.49770630
O       -1.48941492      -0.74814506       0.83471317
C       -0.24385560      -0.37492389       1.15087558
H        2.40241527       0.76120720      -0.73128184
H        2.48418210       0.11244452       0.90331473
H        2.24797053      -0.97314566      -0.46005021
H        0.01655105       1.33445407       0.94706911
H       -0.45351646       0.93758228      -1.74615338
H       -0.09413512      -0.78851824      -1.78532546
H       -2.32652146      -1.06117121      -1.00411507
H       -2.39516826       0.61656564      -0.39890938
H       -0.63867756       1.15908223       1.95078210
H        0.20189468      -0.93767761       1.96237417
16
Frame=8 idx=003256 GeodesicLength=0.6653612389102207 rxn_smarts="[C:1]([C@@:2]1([H:10])[C:3]([H:11])([H:12])[C:4]([H:13])([H:14])[O:5][C:6]1([H:15])[H:16])([H:7])([H:8])[H:9]>>[C:1]([C:2]1=[C:6]([H:16])[O:5][C:4]([H:13])([H:14])[C:3]1([H:11])[H:12])([H:7])([H:8])[H:9].[H:10][H:15]"
C        1.97729246       0.00967372      -0.05862153
C        0.49118185       0.19923512       0.07517550
C       -0.41520356       0.03374867      -1.13008978
C       -1.76966671      -0.27515727      -0.49681781
O       -1.49683778      -0.73845246       0.83935721
C       -0.24378886      -0.37190780       1.15653928
H        2.40090765       0.75661675      -0.73358855
H        2.48674064       0.10897321       0.90196097
H        2.23878273      -0.97615503      -0.45828977
H        0.01664991       1.37705615       0.95049477
H       -0.45112534       0.93851115      -1.74183650
H       -0.09138382      -0.78723566      -1.77882804
H       -2.31622517      -1.07184029      -1.00233884
H       -2.40490967       0.60999839      -0.41258143
H       -0.62952225       1.15128199       1.94513557
H        0.20710792      -0.96434663       1.94432895
16
Frame=9 idx=003256 GeodesicLength=0.748624935833703 rxn_smarts="[C:1]([C@@:2]1([H:10])[C:3]([H:11])([H:12])[C:4]([H:13])([H:14])[O:5][C:6]1([H:15])[H:16])([H:7])([H:8])[H:9]>>[C:1]([C:2]1=[C:6]([H:16])[O:5][C:4]([H:13])([H:14])[C:3]1([H:11])[H:12])([H:7])([H:8])[H:9].[H:10][H:15]"
C        1.97483621       0.00856918      -0.05733209
C        0.48944951       0.20580032       0.08131041
C       -0.41494588       0.03494730      -1.12489110
C       -1.77057770      -0.27702565      -0.49576988
O       -1.50444097      -0.72865642       0.84412676
C       -0.24362877      -0.36986582       1.16221879
H        2.39916282       0.75244081      -0.73537378
H        2.48914220       0.10527547       0.90083923
H        2.22980673      -0.97884721      -0.45669488
H        0.01672565       1.42045973       0.95377066
H       -0.44876248       0.93953314      -1.73711990
H       -0.08873642      -0.78587705      -1.77230615
H       -2.30588724      -1.08253532      -1.00018492
H       -2.41455296       0.60310479      -0.42624133
H       -0.61922428       1.14401167       1.93812513
H        0.21163357      -0.99133493       1.92552306
16
Frame=10 idx=003256 GeodesicLength=0.8318954852757169 rxn_smarts="[C:1]([C@@:2]1([H:10])[C:3]([H:11])([H:12])[C:4]([H:13])([H:14])[O:5][C:6]1([H:15])[H:16])([H:7])([H:8])[H:9]>>[C:1]([C:2]1=[C:6]([H:16])[O:5][C:4]([H:13])([H:14])[C:3]1([H:11])[H:12])([H:7])([H:8])[H:9].[H:10][H:15]"
C        1.97234974       0.00748797      -0.05586446
C        0.48768796       0.21195226       0.08766155
C       -0.41474599       0.03613040      -1.11949221
C       -1.77152331      -0.27902196      -0.49455760
O       -1.51222464      -0.71877946       0.84902833
C       -0.24335448      -0.36884299       1.16794544
H        2.39719455       0.74870196      -0.73662054
H        2.49140380       0.10129010       0.89994997
H        2.22104953      -0.98124268      -0.45532589
H        0.01673500       1.46455306       0.95712012
H       -0.44645711       0.94072124      -1.73192727
H       -0.08619097      -0.78437527      -1.76579549
H       -2.29546376      -1.09332150      -0.99764243
H       -2.42412139       0.59581341      -0.43988233
H       -0.60772716       1.13756897       1.92947038
H        0.21538823      -1.01863550       1.90593244
16
Frame=11 idx=003256 GeodesicLength=0.9151631513590326 rxn_smarts="[C:1]([C@@:2]1([H:10])[C:3]([H:11])([H:12])[C:4]([H:13])([H:14])[O:5][C:6]1([H:15])[H:16])([H:7])([H:8])[H:9]>>[C:1]([C:2]1=[C:6]([H:16])[O:5][C:4]([H:13])([H:14])[C:3]1([H:11])[H:12])([H:7])([H:8])[H:9].[H:10][H:15]"
C        1.96984596       0.00640278      -0.05422791
C        0.48590886       0.21767333       0.09421793
C       -0.41460729       0.03731201      -1.11389881
C       -1.77249793      -0.28115833      -0.49318042
O       -1.52015917      -0.70881395       0.85405834
C       -0.24297530      -0.36879300       1.17372889
H        2.39502752       0.74537510      -0.73734160
H        2.49353723       0.09699228       0.89928281
H        2.21250740      -0.98337992      -0.45419112
H        0.01666660       1.50937991       0.96061583
H       -0.44422309       0.94210784      -1.72623716
H       -0.08374944      -0.78270246      -1.75931974
H       -2.28493404      -1.10422305      -0.99469682
H       -2.43362380       0.58809227      -0.45350957
H       -0.59510719       1.13194742       1.91913174
H        0.21838368      -1.04621224       1.88556761
16
Frame=12 idx=003256 GeodesicLength=0.9984182121722673 rxn_smarts="[C:1]([C@@:2]1([H:10])[C:3]([H:11])([H:12])[C:4]([H:13])([H:14])[O:5][C:6]1([H:15])[H:16])([H:7])([H:8])[H:9]>>[C:1]([C:2]1=[C:6]([H:16])[O:5][C:4]([H:13])([H:14])[C:3]1([H:11])[H:12])([H:7])([H:8])[H:9].[H:10][H:15]"
C        1.96734114       0.00528213      -0.05243806
C        0.48412856       0.22294337       0.10096096
C       -0.41453170       0.03850611      -1.10812207
C       -1.77349343      -0.28344529      -0.49163971
O       -1.52820609      -0.69875564       0.85920867
C       -0.24249909      -0.36965450       1.17957564
H        2.39268849       0.74242382      -0.73755819
H        2.49555701       0.09235522       0.89882154
H        2.20417639      -0.98530392      -0.45329936
H        0.01649830       1.55497804       0.96435351
H       -0.44207253       0.94372527      -1.72003251
H       -0.08141415      -0.78083189      -1.75290778
H       -2.27427515      -1.11526286      -0.99133282
H       -2.44306424       0.57991141      -0.46712457
H       -0.58146313       1.12711872       1.90708735
H        0.22062962      -1.07399000       1.86444740
16
Frame=13 idx=003256 GeodesicLength=1.081657216811408 rxn_smarts="[C:1]([C@@:2]1([H:10])[C:3]([H:11])([H:12])[C:4]([H:13])([H:14])[O:5][C:6]1([H:15])[H:16])([H:7])([H:8])[H:9]>>[C:1]([C:2]1=[C:6]([H:16])[O:5][C:4]([H:13])([H:14])[C:3]1([H:11])[H:12])([H:7])([H:8])[H:9].[H:10][H:15]"
C        1.96485434       0.00408848      -0.05051352
C        0.48236849       0.22774008       0.10786817
C       -0.41452031       0.03972748      -1.10217366
C       -1.77449796      -0.28589692      -0.48993398
O       -1.53632029      -0.68859490       0.86447521
C       -0.24193103      -0.37135412       1.18549291
H        2.39020834       0.73980562      -0.73729274
H        2.49748228       0.08734496       0.89854478
H        2.19604944      -0.98706169      -0.45266157
H        0.01619168       1.60137039       0.96847452
H       -0.44001990       0.94560888      -1.71329170
H       -0.07918742      -0.77873306      -1.74659107
H       -2.26345483      -1.12647161      -0.98752818
H       -2.45244736       0.57123269      -0.48073072
H       -0.56689830       1.12307837       1.89329104
H        0.22212282      -1.10188466       1.84257051
16
Frame=14 idx=003256 GeodesicLength=1.1648676610266662 rxn_smarts="[C:1]([C@@:2]1([H:10])[C:3]([H:11])([H:12])[C:4]([H:13])([H:14])[O:5][C:6]1([H:15])[H:16])([H:7])([H:8])[H:9]>>[C:1]([C:2]1=[C:6]([H:16])[O:5][C:4]([H:13])([H:14])[C:3]1([H:11])[H:12])([H:7])([H:8])[H:9].[H:10][H:15]"
C        1.96240798       0.00278160      -0.04848518
C        0.48065474       0.23203693       0.11489724
C       -0.41457300       0.04098529      -1.09607961
C       -1.77549943      -0.28852354      -0.48807562
O       -1.54446008      -0.67834297       0.86983559
C       -0.24127452      -0.37379774       1.19148837
H        2.38761919       0.73746912      -0.73658963
H        2.49933633       0.08193583       0.89841849
H        2.18812163      -0.98871276      -0.45228985
H        0.01569802       1.64855953       0.97315783
H       -0.43807511       0.94778713      -1.70601026
H       -0.07707227      -0.77638630      -1.74041145
H       -2.25245234      -1.13786081      -0.98328497
H       -2.46176954       0.56202407      -0.49433139
H       -0.55153801       1.11979518       1.87775721
H        0.22287643      -1.12975055       1.82000325
16
Frame=15 idx=003256 GeodesicLength=1.2480417907637469 rxn_smarts="[C:1]([C@@:2]1([H:10])[C:3]([H:11])([H:12])[C:4]([H:13])([H:14])[O:5][C:6]1([H:15])[H:16])([H:7])([H:8])[H:9]>>[C:1]([C:2]1=[C:6]([H:16])[O:5][C:4]([H:13])([H:14])[C:3]1([H:11])[H:12])([H:7])([H:8])[H:9].[H:10][H:15]"
C        1.96002603       0.00131802      -0.04638822
C        0.47901585       0.23580879       0.12200142
C       -0.41468840       0.04228812      -1.08986921
C       -1.77648371      -0.29133553      -0.48607748
O       -1.55258013      -0.66800389       0.87526830
C       -0.24053306      -0.37688265       1.19756433
H        2.38495590       0.73535499      -0.73549735
H        2.50114394       0.07610019       0.89840428
H        2.18038551      -0.99031801      -0.45219601
H        0.01495060       1.69653823       0.97861364
H       -0.43624774       0.95028687      -1.69818667
H       -0.07507100      -0.77377266      -1.73441278
H       -2.24124394      -1.14944637      -0.97860374
H       -2.47102602       0.55225302      -0.50793290
H       -0.53550388       1.11723554       1.86049521
H        0.22290006      -1.15742465       1.79681720
16
Frame=16 idx=003256 GeodesicLength=1.3311811949351096 rxn_smarts="[C:1]([C@@:2]1([H:10])[C:3]([H:11])([H:12])[C:4]([H:13])([H:14])[O:5][C:6]1([H:15])[H:16])([H:7])([H:8])[H:9]>>[C:1]([C:2]1=[C:6]([H:16])[O:5][C:4]([H:13])([H:14])[C:3]1([H:11])[H:12])([H:7])([H:8])[H:9].[H:10][H:15]"
C        1.95773513      -0.00034899      -0.04426534
C        0.47748418       0.23902975       0.12912227
C       -0.41486378       0.04364065      -1.08357955
C       -1.77743540      -0.29434136      -0.48395799
O       -1.56063551      -0.65757778       0.88074719
C       -0.23970913      -0.38049098       1.20372070
H        2.38225615       0.73339606      -0.73407570
H        2.50293282       0.06981196       0.89845495
H        2.17283334      -0.99194464      -0.45239231
H        0.01385862       1.74528715       0.98510100
H       -0.43454473       0.95312901      -1.68982893
H       -0.07318629      -0.77088023      -1.72864283
H       -2.22980386      -1.16124218      -0.97348577
H       -2.48020805       0.54188863      -0.52154879
H       -0.51891890       1.11536387       1.84152766
H        0.22220542      -1.18472092       1.77310345
