14
Frame=0 idx=002381 GeodesicLength=0.0 rxn_smarts="[C:1]([C:2]([O:3][C:4]([C:5]#[C:6][H:14])([H:12])[H:13])([H:10])[H:11])([H:7])([H:8])[H:9]>>[C:1]([C:2]([O:3][C:6](=[C:5]=[C:4]([H:12])[H:13])[H:14])([H:10])[H:11])([H:7])([H:8])[H:9]"
C        1.62138574       1.05373239      -0.26456766
C        0.88086293      -0.20364968       0.12854741
O       -0.39923546      -0.25591165      -0.51549189
C       -1.55966779      -1.38716928       0.08337155
C       -2.40485718      -0.30336691       0.50460214
C       -1.53808643       0.59900021       0.10853975
H        2.61040549       1.05761076       0.19644236
H        1.74206460       1.10853349      -1.34682987
H        1.09141467       1.94438400       0.07452381
H        0.73161962      -0.25509334       1.21316151
H        1.42115094      -1.09495367      -0.19819120
H       -0.99881407      -1.95996204       0.82297097
H       -1.81231669      -1.96487841      -0.80469318
H       -1.38592632       1.66172418      -0.00238570
14
Frame=1 idx=002381 GeodesicLength=0.10152566686374544 rxn_smarts="[C:1]([C:2]([O:3][C:4]([C:5]#[C:6][H:14])([H:12])[H:13])([H:10])[H:11])([H:7])([H:8])[H:9]>>[C:1]([C:2]([O:3][C:6](=[C:5]=[C:4]([H:12])[H:13])[H:14])([H:10])[H:11])([H:7])([H:8])[H:9]"
C        1.63490621       1.05322360      -0.27507525
C        0.89115533      -0.19682072       0.13529159
O       -0.39102032      -0.24904800      -0.50055897
C       -1.56829311      -1.40055804       0.07275504
C       -2.41337649      -0.31534524       0.47813508
C       -1.56054688       0.60874888       0.11619495
H        2.62433893       1.06173225       0.18510057
H        1.75556599       1.09268873      -1.35804916
H        1.10759488       1.95023044       0.05116727
H        0.74727464      -0.23727611       1.22127358
H        1.43062692      -1.09228139      -0.18207441
H       -1.03124354      -1.97628091       0.82762932
H       -1.80809942      -1.97513213      -0.82090869
H       -1.41888314       1.67611864       0.04911908
14
Frame=2 idx=002381 GeodesicLength=0.20299845185592857 rxn_smarts="[C:1]([C:2]([O:3][C:4]([C:5]#[C:6][H:14])([H:12])[H:13])([H:10])[H:11])([H:7])([H:8])[H:9]>>[C:1]([C:2]([O:3][C:6](=[C:5]=[C:4]([H:12])[H:13])[H:14])([H:10])[H:11])([H:7])([H:8])[H:9]"
C        1.64864044       1.05253450      -0.28616308
C        0.90186094      -0.18960901       0.14261116
O       -0.38248400      -0.24220711      -0.48475013
C       -1.57691621      -1.41392189       0.06149914
C       -2.42115787      -0.32665520       0.45037448
C       -1.58353815       0.61875250       0.12343848
H        2.63847945       1.06627865       0.17312057
H        1.76921536       1.07554984      -1.36966295
H        1.12377732       1.95591513       0.02615859
H        0.76343719      -0.21800603       1.22986553
H        1.44043243      -1.08941903      -0.16460421
H       -1.06540855      -1.99301628       0.83142523
H       -1.80346053      -1.98521627      -0.83773758
H       -1.45287781       1.68902021       0.10442476
14
Frame=3 idx=002381 GeodesicLength=0.30441054440245957 rxn_smarts="[C:1]([C:2]([O:3][C:4]([C:5]#[C:6][H:14])([H:12])[H:13])([H:10])[H:11])([H:7])([H:8])[H:9]>>[C:1]([C:2]([O:3][C:6](=[C:5]=[C:4]([H:12])[H:13])[H:14])([H:10])[H:11])([H:7])([H:8])[H:9]"
C        1.66260208       1.05164419      -0.29781250
C        0.91302893      -0.18199247       0.15053545
O       -0.37360713      -0.23537517      -0.46795993
C       -1.58554059      -1.42718437       0.04962054
C       -2.42805679      -0.33716908       0.42142029
C       -1.60701590       0.62909567       0.13034333
H        2.65286553       1.07123438       0.16044704
H        1.78296014       1.05711002      -1.38160857
H        1.13997799       1.96136097      -0.00045299
H        0.78022661      -0.19726296       1.23893828
H        1.45060153      -1.08631804      -0.14576956
H       -1.10141366      -2.01014533       0.83423471
H       -1.79844568      -1.99499954      -0.85516705
H       -1.48818305       1.70000172       0.16323097
14
Frame=4 idx=002381 GeodesicLength=0.4057647474861873 rxn_smarts="[C:1]([C:2]([O:3][C:4]([C:5]#[C:6][H:14])([H:12])[H:13])([H:10])[H:11])([H:7])([H:8])[H:9]>>[C:1]([C:2]([O:3][C:6](=[C:5]=[C:4]([H:12])[H:13])[H:14])([H:10])[H:11])([H:7])([H:8])[H:9]"
C        1.67680490       1.05053012      -0.30997991
C        0.92472173      -0.17396017       0.15909734
O       -0.36437455      -0.22852422      -0.45004260
C       -1.59416334      -1.44026729       0.03715225
C       -2.43390571      -0.34676549       0.39147323
C       -1.63091926       0.63985968       0.13711037
H        2.66755741       1.07654826       0.14700247
H        1.79669758       1.03741028      -1.39380299
H        1.15623600       1.96648173      -0.02852313
H        0.79781708      -0.17508203       1.24849761
H        1.46117231      -1.08293242      -0.12560603
H       -1.13934701      -2.02766911       0.83590962
H       -1.79312512      -2.00431399      -0.87318860
H       -1.52517201       1.70868466       0.22490036
14
Frame=5 idx=002381 GeodesicLength=0.5070318676042942 rxn_smarts="[C:1]([C:2]([O:3][C:4]([C:5]#[C:6][H:14])([H:12])[H:13])([H:10])[H:11])([H:7])([H:8])[H:9]>>[C:1]([C:2]([O:3][C:6](=[C:5]=[C:4]([H:12])[H:13])[H:14])([H:10])[H:11])([H:7])([H:8])[H:9]"
C        1.69125258       1.04915530      -0.32263942
C        0.93699102      -0.16549072       0.16834965
O       -0.35478280      -0.22159689      -0.43079815
C       -1.60277529      -1.45309192       0.02411680
C       -2.43857830      -0.35536413       0.36070292
C       -1.65520111       0.65108507       0.14409940
H        2.68260935       1.08215096       0.13267000
H        1.81030934       1.01645235      -1.40617978
H        1.17259822       1.97118870      -0.05793435
H        0.81639117      -0.15147986       1.25856610
H        1.47216121      -1.07920752      -0.10413067
H       -1.17929608      -2.04559345       0.83626873
H       -1.78749463      -2.01296057      -0.89182584
H       -1.56418469       1.71475267       0.28873461
14
Frame=6 idx=002381 GeodesicLength=0.6082386297902234 rxn_smarts="[C:1]([C:2]([O:3][C:4]([C:5]#[C:6][H:14])([H:12])[H:13])([H:10])[H:11])([H:7])([H:8])[H:9]>>[C:1]([C:2]([O:3][C:6](=[C:5]=[C:4]([H:12])[H:13])[H:14])([H:10])[H:11])([H:7])([H:8])[H:9]"
C        1.70594855       1.04748509      -0.33572571
C        0.94991783      -0.15659138       0.17835376
O       -0.34482194      -0.21455685      -0.40999238
C       -1.61135299      -1.46560724       0.01055100
C       -2.44186590      -0.36290460       0.32954798
C       -1.67981135       0.66277984       0.15175882
H        2.69810276       1.08793751       0.11732867
H        1.82361408       0.99430346      -1.41864499
H        1.18912302       1.97539328      -0.08844814
H        0.83620271      -0.12654943       1.26917959
H        1.48361959      -1.07511317      -0.08140298
H       -1.22127691      -2.06403087       0.83504666
H       -1.78167250      -2.02069220      -0.91112375
H       -1.60572694       1.71814654       0.35357147
14
Frame=7 idx=002381 GeodesicLength=0.7093741977882793 rxn_smarts="[C:1]([C:2]([O:3][C:4]([C:5]#[C:6][H:14])([H:12])[H:13])([H:10])[H:11])([H:7])([H:8])[H:9]>>[C:1]([C:2]([O:3][C:6](=[C:5]=[C:4]([H:12])[H:13])[H:14])([H:10])[H:11])([H:7])([H:8])[H:9]"
C        1.72087836       1.04545335      -0.34925235
C        0.96355086      -0.14722724       0.18921122
O       -0.33448271      -0.20736038      -0.38737729
C       -1.61986172      -1.47776630      -0.00357519
C       -2.44363103      -0.36936768       0.29827753
C       -1.70476836       0.67489933       0.16048664
H        2.71407037       1.09383426       0.10082748
H        1.83648628       0.97084775      -1.43116622
H        1.20583210       1.97901120      -0.12006889
H        0.85742263      -0.10021333       1.28039840
H        1.49557459      -1.07060457      -0.05731807
H       -1.26532478      -2.08306286       0.83193099
H       -1.77564393      -2.02727641      -0.93119640
H       -1.65010266       1.71883290       0.41882216
14
Frame=8 idx=002381 GeodesicLength=0.8104650110240186 rxn_smarts="[C:1]([C:2]([O:3][C:4]([C:5]#[C:6][H:14])([H:12])[H:13])([H:10])[H:11])([H:7])([H:8])[H:9]>>[C:1]([C:2]([O:3][C:6](=[C:5]=[C:4]([H:12])[H:13])[H:14])([H:10])[H:11])([H:7])([H:8])[H:9]"
C        1.73601855       1.04298646      -0.36324205
C        0.97794990      -0.13736600       0.20102990
O       -0.32374107      -0.20000161      -0.36271366
C       -1.62825684      -1.48953283      -0.01830403
C       -2.44372763      -0.37472412       0.26718647
C       -1.73012521       0.68738683       0.17055590
H        2.73054126       1.09976625       0.08299756
H        1.84877863       0.94595631      -1.44371346
H        1.22272539       1.98195194      -0.15281656
H        0.88021392      -0.07236138       1.29227718
H        1.50808666      -1.06564277      -0.03172945
H       -1.31147110      -2.10276613       0.82658827
H       -1.76940596      -2.03250884      -0.95216074
H       -1.69758650       1.71685589       0.48404468
14
Frame=9 idx=002381 GeodesicLength=0.9113987059227983 rxn_smarts="[C:1]([C:2]([O:3][C:4]([C:5]#[C:6][H:14])([H:12])[H:13])([H:10])[H:11])([H:7])([H:8])[H:9]>>[C:1]([C:2]([O:3][C:6](=[C:5]=[C:4]([H:12])[H:13])[H:14])([H:10])[H:11])([H:7])([H:8])[H:9]"
C        1.75130137       1.03994835      -0.37780114
C        0.99312217      -0.12690574       0.21397453
O       -0.31257427      -0.19243264      -0.33571421
C       -1.63646681      -1.50080896      -0.03376112
C       -2.44203535      -0.37893928       0.23633098
C       -1.75594801       0.70015341       0.18226821
H        2.74744761       1.10567959       0.06363864
H        1.86038841       0.91924068      -1.45629785
H        1.23972914       1.98406731      -0.18701626
H        0.90464953      -0.04266494       1.30489875
H        1.52115275      -1.06012985      -0.00428856
H       -1.35976929      -2.12311603       0.81861027
H       -1.76276074      -2.03609974      -0.97421672
H       -1.74823652       1.71200783       0.54937446
14
Frame=10 idx=002381 GeodesicLength=1.012260355920352 rxn_smarts="[C:1]([C:2]([O:3][C:4]([C:5]#[C:6][H:14])([H:12])[H:13])([H:10])[H:11])([H:7])([H:8])[H:9]>>[C:1]([C:2]([O:3][C:6](=[C:5]=[C:4]([H:12])[H:13])[H:14])([H:10])[H:11])([H:7])([H:8])[H:9]"
C        1.76667723       1.03624886      -0.39290747
C        1.00917480      -0.11585304       0.22815337
O       -0.30092806      -0.18472167      -0.30609174
C       -1.64441695      -1.51156387      -0.04996095
C       -2.43833014      -0.38198806       0.20636480
C       -1.78230162       0.71310374       0.19582005
H        2.76482013       1.11145062       0.04254962
H        1.87106767       0.89064399      -1.46882506
H        1.25679640       1.98521188      -0.22253960
H        0.93096300      -0.01108815       1.31828682
H        1.53491795      -1.05403188       0.02511136
H       -1.41013238      -2.14425785       0.80753416
H       -1.75583284      -2.03775344      -0.99747951
H       -1.80247519       1.70459886       0.61398413
14
Frame=11 idx=002381 GeodesicLength=1.1130124612623773 rxn_smarts="[C:1]([C:2]([O:3][C:4]([C:5]#[C:6][H:14])([H:12])[H:13])([H:10])[H:11])([H:7])([H:8])[H:9]>>[C:1]([C:2]([O:3][C:6](=[C:5]=[C:4]([H:12])[H:13])[H:14])([H:10])[H:11])([H:7])([H:8])[H:9]"
C        1.78205260       1.03169802      -0.40869270
C        1.02613813      -0.10408306       0.24378195
O       -0.28876440      -0.17685085      -0.27348022
C       -1.65201111      -1.52167557      -0.06708282
C       -2.43248476      -0.38382670       0.17747424
C       -1.80929549       0.72614159       0.21144875
H        2.78256466       1.11701914       0.01948415
H        1.88069019       0.85962812      -1.48127327
H        1.27377596       1.98516703      -0.25983710
H        0.95925246       0.02282181       1.33252249
H        1.54943387      -1.04722829       0.05696474
H       -1.46254202      -2.16617088       0.79277868
H       -1.74842948      -2.03707195      -1.02222878
H       -1.86038061       1.69443157       0.67813988
14
Frame=12 idx=002381 GeodesicLength=1.2137189671612463 rxn_smarts="[C:1]([C:2]([O:3][C:4]([C:5]#[C:6][H:14])([H:12])[H:13])([H:10])[H:11])([H:7])([H:8])[H:9]>>[C:1]([C:2]([O:3][C:6](=[C:5]=[C:4]([H:12])[H:13])[H:14])([H:10])[H:11])([H:7])([H:8])[H:9]"
C        1.79730682       1.02612609      -0.42518497
C        1.04411837      -0.09155862       0.26102009
O       -0.27601574      -0.16890259      -0.23749857
C       -1.65913457      -1.53104589      -0.08520922
C       -2.42432615      -0.38441642       0.15021765
C       -1.83702720       0.73916969       0.22928431
H        2.80062354       1.12224716      -0.00582693
H        1.88895192       0.82591984      -1.49353355
H        1.29049162       1.98368879      -0.29896098
H        0.98975059       0.05928129       1.34762153
H        1.56488005      -1.03963219       0.09154261
H       -1.51688529      -2.18887564       0.77376221
H       -1.74051868      -2.03365048      -1.04864845
H       -1.92221528       1.68164897       0.74141428
14
Frame=13 idx=002381 GeodesicLength=1.3141373606350233 rxn_smarts="[C:1]([C:2]([O:3][C:4]([C:5]#[C:6][H:14])([H:12])[H:13])([H:10])[H:11])([H:7])([H:8])[H:9]>>[C:1]([C:2]([O:3][C:6](=[C:5]=[C:4]([H:12])[H:13])[H:14])([H:10])[H:11])([H:7])([H:8])[H:9]"
C        1.81224373       1.01914365      -0.44267177
C        1.06304139      -0.07797438       0.28024544
O       -0.26264954      -0.16076566      -0.19757523
C       -1.66559264      -1.53934515      -0.10473716
C       -2.41369663      -0.38361704       0.12435585
C       -1.86561173       0.75205511       0.24968330
H        2.81871072       1.12703131      -0.03380951
H        1.89573476       0.78838870      -1.50553738
H        1.30663607       1.98027472      -0.34098738
H        1.02239271       0.09925878       1.36366308
H        1.58118744      -1.03090949       0.12988801
H       -1.57315675      -2.21205898       0.74961107
H       -1.73148497      -2.02677787      -1.07719056
H       -1.98775456       1.66529631       0.80506223
14
Frame=14 idx=002381 GeodesicLength=1.414481611042179 rxn_smarts="[C:1]([C:2]([O:3][C:4]([C:5]#[C:6][H:14])([H:12])[H:13])([H:10])[H:11])([H:7])([H:8])[H:9]>>[C:1]([C:2]([O:3][C:6](=[C:5]=[C:4]([H:12])[H:13])[H:14])([H:10])[H:11])([H:7])([H:8])[H:9]"
C        1.82663663       1.01059241      -0.46097199
C        1.08313900      -0.06347159       0.30149847
O       -0.24855496      -0.15269309      -0.15325452
C       -1.67119793      -1.54650493      -0.12555824
C       -2.40035126      -0.38149274       0.10128672
C       -1.89511015       0.76465791       0.27270342
H        2.83676523       1.13104344      -0.06475303
H        1.90037611       0.74722395      -1.51698798
H        1.32190458       1.97460982      -0.38520482
H        1.05767953       0.14247113       1.38051363
H        1.59877287      -1.02103258       0.17177942
H       -1.63087105      -2.23582892       0.71968126
H       -1.72157486      -2.01589768      -1.10787567
H       -2.05761374       1.64632287       0.86714334
14
Frame=15 idx=002381 GeodesicLength=1.5147056565686412 rxn_smarts="[C:1]([C:2]([O:3][C:4]([C:5]#[C:6][H:14])([H:12])[H:13])([H:10])[H:11])([H:7])([H:8])[H:9]>>[C:1]([C:2]([O:3][C:6](=[C:5]=[C:4]([H:12])[H:13])[H:14])([H:10])[H:11])([H:7])([H:8])[H:9]"
C        1.84018599       0.99997410      -0.48030200
C        1.10441695      -0.04778895       0.32514277
O       -0.23366395      -0.14466576      -0.10382253
C       -1.67566193      -1.55212837      -0.14807700
C       -2.38412106      -0.37792608       0.08115252
C       -1.92564617       0.77683004       0.29872708
H        2.85442676       1.13404158      -0.09915090
H        1.90257289       0.70125091      -1.52763863
H        1.33579432       1.96599930      -0.43249910
H        1.09570737       0.18982676       1.39812385
H        1.61775541      -1.00963444       0.21819103
H       -1.68974619      -2.25978135       0.68289590
H       -1.71019448      -2.00007678      -1.14116273
H       -2.13182592       1.62407903       0.92841973
14
Frame=16 idx=002381 GeodesicLength=1.6147389278486057 rxn_smarts="[C:1]([C:2]([O:3][C:4]([C:5]#[C:6][H:14])([H:12])[H:13])([H:10])[H:11])([H:7])([H:8])[H:9]>>[C:1]([C:2]([O:3][C:6](=[C:5]=[C:4]([H:12])[H:13])[H:14])([H:10])[H:11])([H:7])([H:8])[H:9]"
C        1.85245817       0.98689992      -0.50058647
C        1.12694631      -0.03092737       0.35126843
O       -0.21785010      -0.13686832      -0.04868217
C       -1.67863037      -1.55586065      -0.17234734
C       -2.36470239      -0.37292236       0.06480927
C       -1.95718822       0.78837661       0.32786022
H        2.87125787       1.13560607      -0.13739995
H        1.90167461       0.65011317      -1.53703006
H        1.34769421       1.95376567      -0.48269076
H        1.13671318       0.24141926       1.41616852
H        1.63842564      -0.99643946       0.26927090
H       -1.74921189      -2.28346623       0.63844168
H       -1.69701986      -1.97839251      -1.17705373
H       -2.21056715       1.59869619       0.98797148
