9
Frame=0 idx=003181 GeodesicLength=0.0 rxn_smarts="[O:1]([c:2]1[c:3]([H:8])[o:4][c:5]([H:9])[n:6]1)[H:7]>>[O:1]([c:2]1[c:3]([H:8])[o+:4][c-:5][n:6]1[H:9])[H:7]"
O        1.86512249      -0.33057241       0.17735395
C        0.56991807      -0.04109409      -0.00411197
C       -0.02837996       1.14896437      -0.15746122
O       -1.37445039       0.94138654      -0.23648976
C       -1.61268730      -0.38757521      -0.24777588
N       -0.40707030      -1.02099060      -0.10335995
H        1.97669419      -1.28127530       0.08873278
H        0.33631251       2.15605012      -0.25136583
H       -1.32545932      -1.18489345       0.73447792
9
Frame=1 idx=003181 GeodesicLength=0.032423468430848666 rxn_smarts="[O:1]([c:2]1[c:3]([H:8])[o:4][c:5]([H:9])[n:6]1)[H:7]>>[O:1]([c:2]1[c:3]([H:8])[o+:4][c-:5][n:6]1[H:9])[H:7]"
O        1.85715863      -0.33395423       0.22183757
C        0.56857640      -0.04331133       0.00031026
C       -0.02457228       1.14736973      -0.16887885
O       -1.37236019       0.94247368      -0.23908159
C       -1.61138113      -0.38547990      -0.24735411
N       -0.41131929      -1.01970237      -0.09376795
H        1.99236699      -1.26893827       0.04449242
H        0.34153647       2.15428944      -0.25811709
H       -1.34000560      -1.19274674       0.74055935
9
Frame=2 idx=003181 GeodesicLength=0.06530081618422323 rxn_smarts="[O:1]([c:2]1[c:3]([H:8])[o:4][c:5]([H:9])[n:6]1)[H:7]>>[O:1]([c:2]1[c:3]([H:8])[o+:4][c-:5][n:6]1[H:9])[H:7]"
O        1.84857491      -0.33969948       0.26064425
C        0.56683972      -0.04590952       0.00658938
C       -0.02054299       1.14566793      -0.17696588
O       -1.37002720       0.94410897      -0.23931598
C       -1.61028980      -0.38273242      -0.24707792
N       -0.41606540      -1.01837968      -0.08520934
H        2.00898559      -1.25219058       0.00491580
H        0.34809635       2.15138668      -0.26814563
H       -1.35557119      -1.20225189       0.74456532
9
Frame=3 idx=003181 GeodesicLength=0.09811327091000385 rxn_smarts="[O:1]([c:2]1[c:3]([H:8])[o:4][c:5]([H:9])[n:6]1)[H:7]>>[O:1]([c:2]1[c:3]([H:8])[o+:4][c-:5][n:6]1[H:9])[H:7]"
O        1.84054119      -0.34637859       0.29153819
C        0.56506468      -0.04861456       0.01232050
C       -0.01633852       1.14372942      -0.18574507
O       -1.36761520       0.94592402      -0.23883637
C       -1.60942175      -0.37973746      -0.24631359
N       -0.42098190      -1.01700509      -0.07759952
H        2.02480940      -1.23409786      -0.02716133
H        0.35472620       2.14852852      -0.27610361
H       -1.37078408      -1.21234839       0.74790078
9
Frame=4 idx=003181 GeodesicLength=0.1310989802932317 rxn_smarts="[O:1]([c:2]1[c:3]([H:8])[o:4][c:5]([H:9])[n:6]1)[H:7]>>[O:1]([c:2]1[c:3]([H:8])[o+:4][c-:5][n:6]1[H:9])[H:7]"
O        1.83245367      -0.35430515       0.32004222
C        0.56305405      -0.05133937       0.01960993
C       -0.01221780       1.14224575      -0.18974045
O       -1.36523530       0.94848353      -0.23489691
C       -1.60873852      -0.37598959      -0.24543156
N       -0.42611408      -1.01540511      -0.07155630
H        2.04080478      -1.21357869      -0.05641277
H        0.36250571       2.14464399      -0.29017677
H       -1.38651249      -1.22475537       0.74856261
9
Frame=5 idx=003181 GeodesicLength=0.16431600732169532 rxn_smarts="[O:1]([c:2]1[c:3]([H:8])[o:4][c:5]([H:9])[n:6]1)[H:7]>>[O:1]([c:2]1[c:3]([H:8])[o+:4][c-:5][n:6]1[H:9])[H:7]"
O        1.82375622      -0.36311897       0.34592936
C        0.56106460      -0.05452901       0.02426447
C       -0.00797170       1.14055120      -0.19422113
O       -1.36276607       0.95140540      -0.22954079
C       -1.60850735      -0.37173863      -0.24345901
N       -0.43170051      -1.01382214      -0.06682705
H        2.05715633      -1.19155639      -0.08129015
H        0.37056543       2.14045932      -0.30368113
H       -1.40159694      -1.23765078       0.74882543
9
Frame=6 idx=003181 GeodesicLength=0.1976043478626951 rxn_smarts="[O:1]([c:2]1[c:3]([H:8])[o:4][c:5]([H:9])[n:6]1)[H:7]>>[O:1]([c:2]1[c:3]([H:8])[o+:4][c-:5][n:6]1[H:9])[H:7]"
O        1.81529642      -0.37277243       0.36913460
C        0.55899722      -0.05792952       0.02916934
C       -0.00363616       1.13870223      -0.19822341
O       -1.36017274       0.95440071      -0.22443385
C       -1.60843436      -0.36738095      -0.24129239
N       -0.43750595      -1.01231176      -0.06191392
H        2.07368646      -1.16797439      -0.10425255
H        0.37890316       2.13593243      -0.31696552
H       -1.41713404      -1.25066632       0.74877769
9
Frame=7 idx=003181 GeodesicLength=0.2309043829459218 rxn_smarts="[O:1]([c:2]1[c:3]([H:8])[o:4][c:5]([H:9])[n:6]1)[H:7]>>[O:1]([c:2]1[c:3]([H:8])[o+:4][c-:5][n:6]1[H:9])[H:7]"
O        1.80728382      -0.38311405       0.38965015
C        0.55683518      -0.06140560       0.03519845
C        0.00083497       1.13667629      -0.20152082
O       -1.35732884       0.95728401      -0.22013994
C       -1.60824353      -0.36308921      -0.23923240
N       -0.44336078      -1.01083549      -0.05628296
H        2.08985249      -1.14285262      -0.12609498
H        0.38747172       2.13100253      -0.33002531
H       -1.43334503      -1.26366586       0.74844781
9
Frame=8 idx=003181 GeodesicLength=0.2642203945704244 rxn_smarts="[O:1]([c:2]1[c:3]([H:8])[o:4][c:5]([H:9])[n:6]1)[H:7]>>[O:1]([c:2]1[c:3]([H:8])[o+:4][c-:5][n:6]1[H:9])[H:7]"
O        1.79935688      -0.39381804       0.40775366
C        0.55475585      -0.06518055       0.03946657
C        0.00537985       1.13436321      -0.20604969
O       -1.35442237       0.96021896      -0.21605626
C       -1.60835105      -0.35868763      -0.23647970
N       -0.44946824      -1.00942874      -0.05088392
H        2.10608830      -1.11720312      -0.14504095
H        0.39593308       2.12618718      -0.34111816
H       -1.44927229      -1.27645127       0.74840845
9
Frame=9 idx=003181 GeodesicLength=0.2976186172973549 rxn_smarts="[O:1]([c:2]1[c:3]([H:8])[o:4][c:5]([H:9])[n:6]1)[H:7]>>[O:1]([c:2]1[c:3]([H:8])[o+:4][c-:5][n:6]1[H:9])[H:7]"
O        1.79113128      -0.40488356       0.42412999
C        0.55279242      -0.06933066       0.04141873
C        0.00997974       1.13183836      -0.21157930
O       -1.35145297       0.96341885      -0.21107103
C       -1.60884803      -0.35393186      -0.23274921
N       -0.45589765      -1.00803204      -0.04626475
H        2.12265141      -1.09100098      -0.16084010
H        0.40438412       2.12139055      -0.35132453
H       -1.46474031      -1.28946866       0.74828021
9
Frame=10 idx=003181 GeodesicLength=0.33107176209035616 rxn_smarts="[O:1]([c:2]1[c:3]([H:8])[o:4][c:5]([H:9])[n:6]1)[H:7]>>[O:1]([c:2]1[c:3]([H:8])[o+:4][c-:5][n:6]1[H:9])[H:7]"
O        1.78333324      -0.41676020       0.43892877
C        0.55069768      -0.07356459       0.04488222
C        0.01468167       1.12927050      -0.21545494
O       -1.34828563       0.96662827      -0.20628070
C       -1.60925302      -0.34912843      -0.22917199
N       -0.46241628      -1.00662888      -0.04099875
H        2.13907938      -1.06294775      -0.17639987
H        0.41328897       2.11591187      -0.36291791
H       -1.48112601      -1.30278078       0.74741315
9
Frame=11 idx=003181 GeodesicLength=0.36459348234070577 rxn_smarts="[O:1]([c:2]1[c:3]([H:8])[o:4][c:5]([H:9])[n:6]1)[H:7]>>[O:1]([c:2]1[c:3]([H:8])[o+:4][c-:5][n:6]1[H:9])[H:7]"
O        1.77513573      -0.42879117       0.45215660
C        0.54876281      -0.07824479       0.04530664
C        0.01940659       1.12640611      -0.22115921
O       -1.34505468       0.97012433      -0.20050653
C       -1.61013499      -0.34393103      -0.22435871
N       -0.46929682      -1.00523947      -0.03665030
H        2.15598577      -1.03475149      -0.18850224
H        0.42203556       2.11065337      -0.37298184
H       -1.49683997      -1.31622588       0.74669558
9
Frame=12 idx=003181 GeodesicLength=0.39822330016077634 rxn_smarts="[O:1]([c:2]1[c:3]([H:8])[o:4][c:5]([H:9])[n:6]1)[H:7]>>[O:1]([c:2]1[c:3]([H:8])[o+:4][c-:5][n:6]1[H:9])[H:7]"
O        1.76741955      -0.44194147       0.46412650
C        0.54665018      -0.08302765       0.04790388
C        0.02428217       1.12355611      -0.22443915
O       -1.34160061       0.97366996      -0.19473143
C       -1.61089089      -0.33863635      -0.21980176
N       -0.47628885      -1.00383384      -0.03151806
H        2.17277282      -1.00403545      -0.20092917
H        0.43143816       2.10436344      -0.38548781
H       -1.51378254      -1.33011476       0.74487699
9
Frame=13 idx=003181 GeodesicLength=0.4319276299925066 rxn_smarts="[O:1]([c:2]1[c:3]([H:8])[o:4][c:5]([H:9])[n:6]1)[H:7]>>[O:1]([c:2]1[c:3]([H:8])[o+:4][c-:5][n:6]1[H:9])[H:7]"
O        1.75903771      -0.45512384       0.47475758
C        0.54472747      -0.08834783       0.04670849
C        0.02914632       1.12043318      -0.22971157
O       -1.33802377       0.97764337      -0.18718820
C       -1.61221098      -0.33275568      -0.21360025
N       -0.48371637      -1.00239471      -0.02775065
H        2.19022757      -0.97335565      -0.20931548
H        0.44063712       2.09829532      -0.39692523
H       -1.52982508      -1.34439415       0.74302531
9
Frame=14 idx=003181 GeodesicLength=0.465663455876581 rxn_smarts="[O:1]([c:2]1[c:3]([H:8])[o:4][c:5]([H:9])[n:6]1)[H:7]>>[O:1]([c:2]1[c:3]([H:8])[o+:4][c-:5][n:6]1[H:9])[H:7]"
O        1.75107498      -0.46899004       0.48395062
C        0.54274957      -0.09377309       0.04646543
C        0.03412147       1.11730802      -0.23367579
O       -1.33421640       0.98174944      -0.17913629
C       -1.61345930      -0.32668074      -0.20723282
N       -0.49122062      -1.00088900      -0.02355708
H        2.20741801      -0.94107116      -0.21690821
H        0.45016469       2.09152367      -0.41003550
H       -1.54663240      -1.35917710       0.74012963
9
Frame=15 idx=003181 GeodesicLength=0.4994564701122078 rxn_smarts="[O:1]([c:2]1[c:3]([H:8])[o:4][c:5]([H:9])[n:6]1)[H:7]>>[O:1]([c:2]1[c:3]([H:8])[o+:4][c-:5][n:6]1[H:9])[H:7]"
O        1.74324175      -0.48343447       0.49178561
C        0.54079978      -0.09947991       0.04563470
C        0.03915485       1.11410585      -0.23729571
O       -1.33022488       0.98610326      -0.17015591
C       -1.61487410      -0.32025917      -0.20018102
N       -0.49893818      -0.99933110      -0.01948228
H        2.22475942      -0.90760083      -0.22269607
H        0.45981710       2.08427741      -0.42409016
H       -1.56373573      -1.37438105       0.73648084
9
Frame=16 idx=003181 GeodesicLength=0.5333049789645905 rxn_smarts="[O:1]([c:2]1[c:3]([H:8])[o:4][c:5]([H:9])[n:6]1)[H:7]>>[O:1]([c:2]1[c:3]([H:8])[o+:4][c-:5][n:6]1[H:9])[H:7]"
O        1.73492345      -0.49802094       0.49821995
C        0.53899601      -0.10572330       0.04192951
C        0.04420913       1.11063582      -0.24219792
O       -1.32593230       0.99077288      -0.15973497
C       -1.61663976      -0.31334606      -0.19168877
N       -0.50701141      -0.99774642      -0.01621848
H        2.24255099      -0.87369299      -0.22516580
H        0.46932083       2.07703265      -0.43773485
H       -1.58041695      -1.38991165       0.73259133
