10
Frame=0 idx=003201 GeodesicLength=0.0 rxn_smarts="[O:1]([C:2]([C:3](=[O:4])[H:9])([C:5](=[O:6])[H:10])[H:8])[H:7]>>[O:1]1[C@:2]([C:5](=[O:6])[H:10])([H:8])[C@:3]1([O:4][H:7])[H:9]"
O       -0.63929276      -1.35418193      -0.35059990
C       -0.06932126      -0.15222469      -0.64081373
C        1.10540448      -0.31570988       0.24572023
O        0.93415693      -0.69799243       1.44382786
C       -0.99468319       0.99391974      -0.24919368
O       -0.74283812       1.83677615       0.56880163
H       -0.02655329      -0.96300281       1.45884735
H        0.27085232      -0.01019996      -1.68486130
H        2.15052777      -0.25099357      -0.05765780
H       -1.98825290       0.91360937      -0.73407065
10
Frame=1 idx=003201 GeodesicLength=0.1434088614930452 rxn_smarts="[O:1]([C:2]([C:3](=[O:4])[H:9])([C:5](=[O:6])[H:10])[H:8])[H:7]>>[O:1]1[C@:2]([C:5](=[O:6])[H:10])([H:8])[C@:3]1([O:4][H:7])[H:9]"
O       -0.58976203      -1.35092434      -0.38466146
C       -0.05171697      -0.12477592      -0.64626130
C        1.10451669      -0.30803588       0.26088833
O        0.90591437      -0.68254602       1.45887417
C       -1.00439648       0.98995965      -0.24107137
O       -0.71513070       1.93958079       0.43520629
H       -0.06148746      -1.01782175       1.42290682
H        0.30710338       0.03986666      -1.67955667
H        2.15203632      -0.31985114      -0.04269492
H       -2.04707712       0.83454795      -0.58362989
10
Frame=2 idx=003201 GeodesicLength=0.2855624110478417 rxn_smarts="[O:1]([C:2]([C:3](=[O:4])[H:9])([C:5](=[O:6])[H:10])[H:8])[H:7]>>[O:1]1[C@:2]([C:5](=[O:6])[H:10])([H:8])[C@:3]1([O:4][H:7])[H:9]"
O       -0.54336424      -1.34486400      -0.41615611
C       -0.03503665      -0.09781046      -0.65109047
C        1.10278184      -0.29997549       0.27559813
O        0.87747411      -0.67028119       1.47192920
C       -1.01024793       0.98880020      -0.23318432
O       -0.70903637       2.02717475       0.29003103
H       -0.09283035      -1.07176343       1.38451624
H        0.34219579       0.08655946      -1.67332049
H        2.14784734      -0.38509811      -0.02685025
H       -2.07978353       0.76725827      -0.42147295
10
Frame=3 idx=003201 GeodesicLength=0.42604318902985083 rxn_smarts="[O:1]([C:2]([C:3](=[O:4])[H:9])([C:5](=[O:6])[H:10])[H:8])[H:7]>>[O:1]1[C@:2]([C:5](=[O:6])[H:10])([H:8])[C@:3]1([O:4][H:7])[H:9]"
O       -0.50119680      -1.33676653      -0.44471590
C       -0.01928071      -0.07206539      -0.65544712
C        1.10041171      -0.29346594       0.28935660
O        0.84911325      -0.66043768       1.48337043
C       -1.01316041       0.98978391      -0.22620461
O       -0.72365097       2.09661599       0.13989660
H       -0.12136131      -1.12430931       1.34425781
H        0.37621271       0.12895226      -1.66650228
H        2.13958876      -0.44400536      -0.01031266
H       -2.08667623       0.71569805      -0.25369887
10
Frame=4 idx=003201 GeodesicLength=0.5641534324633392 rxn_smarts="[O:1]([C:2]([C:3](=[O:4])[H:9])([C:5](=[O:6])[H:10])[H:8])[H:7]>>[O:1]1[C@:2]([C:5](=[O:6])[H:10])([H:8])[C@:3]1([O:4][H:7])[H:9]"
O       -0.46312830      -1.32684987      -0.46952836
C       -0.00415990      -0.04740150      -0.65903642
C        1.09802612      -0.28890167       0.30188580
O        0.82214198      -0.65210787       1.49344211
C       -1.01425948       0.99212596      -0.22039633
O       -0.75841880       2.14627900      -0.00682285
H       -0.14772650      -1.17311918       1.30353140
H        0.40894238       0.16774620      -1.65898556
H        2.12848325      -0.49894426       0.00536383
H       -2.06990075       0.68117319      -0.08945361
10
Frame=5 idx=003201 GeodesicLength=0.6999286339477898 rxn_smarts="[O:1]([C:2]([C:3](=[O:4])[H:9])([C:5](=[O:6])[H:10])[H:8])[H:7]>>[O:1]1[C@:2]([C:5](=[O:6])[H:10])([H:8])[C@:3]1([O:4][H:7])[H:9]"
O       -0.42875458      -1.31566636      -0.49057645
C        0.01050886      -0.02372435      -0.66143027
C        1.09611665      -0.28664143       0.31320185
O        0.79743533      -0.64496401       1.50253407
C       -1.01430960       0.99509764      -0.21476815
O       -0.81019652       2.17700428      -0.14618187
H       -0.17262498      -1.21788001       1.26313161
H        0.44024500       0.20406576      -1.65041499
H        2.11567049      -0.55079767       0.01948408
H       -2.03409065       0.66350617       0.06502011
10
Frame=6 idx=003201 GeodesicLength=0.8332847137154143 rxn_smarts="[O:1]([C:2]([C:3](=[O:4])[H:9])([C:5](=[O:6])[H:10])[H:8])[H:7]>>[O:1]1[C@:2]([C:5](=[O:6])[H:10])([H:8])[C@:3]1([O:4][H:7])[H:9]"
O       -0.39752025      -1.30369981      -0.50834863
C        0.02485454      -0.00104145      -0.66254995
C        1.09474421      -0.28681267       0.32339438
O        0.77518982      -0.63871356       1.51100613
C       -1.01352718       0.99831413      -0.20897426
O       -0.87485054       2.18979022      -0.27607354
H       -0.19696174      -1.25882476       1.22329875
H        0.47013618       0.23874715      -1.64068904
H        2.10187484      -0.59931345       0.03192077
H       -1.98393988       0.66155419       0.20701538
10
Frame=7 idx=003201 GeodesicLength=0.9657667898958794 rxn_smarts="[O:1]([C:2]([C:3](=[O:4])[H:9])([C:5](=[O:6])[H:10])[H:8])[H:7]>>[O:1]1[C@:2]([C:5](=[O:6])[H:10])([H:8])[C@:3]1([O:4][H:7])[H:9]"
O       -0.36874016      -1.29023520      -0.52365615
C        0.03988745       0.02215927      -0.66138721
C        1.09495180      -0.28943300       0.33313349
O        0.75630420      -0.63465523       1.51937355
C       -1.01053657       1.00328924      -0.19979117
O       -0.95449664       2.18671862      -0.40111600
H       -0.22166057      -1.29639180       1.18386445
H        0.49970660       0.27449952      -1.62873546
H        2.08748153      -0.64897817       0.04208622
H       -1.92289763       0.67302675       0.33622828
10
Frame=8 idx=003201 GeodesicLength=1.096568999681497 rxn_smarts="[O:1]([C:2]([C:3](=[O:4])[H:9])([C:5](=[O:6])[H:10])[H:8])[H:7]>>[O:1]1[C@:2]([C:5](=[O:6])[H:10])([H:8])[C@:3]1([O:4][H:7])[H:9]"
O       -0.34243123      -1.27440386      -0.53861671
C        0.05523693       0.04584938      -0.65801907
C        1.09519522      -0.29516453       0.34310487
O        0.73949848      -0.63493658       1.52733488
C       -1.00452849       1.01008136      -0.18789989
O       -1.04696857       2.16224678      -0.52534886
H       -0.24814101      -1.33232216       1.14224119
H        0.52915230       0.31213210      -1.61335658
H        2.07262473      -0.69471594       0.05192019
H       -1.84963836       0.70123345       0.45863997
10
Frame=9 idx=003201 GeodesicLength=1.2264186208271604 rxn_smarts="[O:1]([C:2]([C:3](=[O:4])[H:9])([C:5](=[O:6])[H:10])[H:8])[H:7]>>[O:1]1[C@:2]([C:5](=[O:6])[H:10])([H:8])[C@:3]1([O:4][H:7])[H:9]"
O       -0.31772138      -1.25726554      -0.55317409
C        0.07222250       0.07019353      -0.65348864
C        1.09639840      -0.30351218       0.35264037
O        0.72417018      -0.63667575       1.53532918
C       -0.99570801       1.01985564      -0.17559150
O       -1.15318666       2.11610632      -0.64129884
H       -0.27898571      -1.36349216       1.09934540
H        0.56043721       0.35210719      -1.59600553
H        2.05787981      -0.74099313       0.06043503
H       -1.76550634       0.74367608       0.57180862
10
Frame=10 idx=003201 GeodesicLength=1.3550763077329973 rxn_smarts="[O:1]([C:2]([C:3](=[O:4])[H:9])([C:5](=[O:6])[H:10])[H:8])[H:7]>>[O:1]1[C@:2]([C:5](=[O:6])[H:10])([H:8])[C@:3]1([O:4][H:7])[H:9]"
O       -0.29403866      -1.23835889      -0.56793688
C        0.09100579       0.09511955      -0.64830778
C        1.09811380      -0.31401261       0.36167160
O        0.70961624      -0.63806958       1.54304872
C       -0.98396552       1.03213204      -0.16475755
O       -1.27111250       2.04508124      -0.74338450
H       -0.31523165      -1.38793614       1.05416104
H        0.59334940       0.39505183      -1.57641988
H        2.04202854      -0.78872390       0.06839371
H       -1.66976543       0.79971647       0.67353152
10
Frame=11 idx=003201 GeodesicLength=1.4826312308736778 rxn_smarts="[O:1]([C:2]([C:3](=[O:4])[H:9])([C:5](=[O:6])[H:10])[H:8])[H:7]>>[O:1]1[C@:2]([C:5](=[O:6])[H:10])([H:8])[C@:3]1([O:4][H:7])[H:9]"
O       -0.27037393      -1.21985399      -0.58303480
C        0.11038181       0.11922904      -0.64324861
C        1.09937198      -0.32578585       0.36989660
O        0.69501820      -0.63774380       1.55053163
C       -0.97190356       1.04483033      -0.15684008
O       -1.39131301       1.95076671      -0.82505144
H       -0.35651888      -1.40683379       1.00653020
H        0.62622258       0.44009169      -1.55542278
H        2.02568092      -0.83445336       0.07587206
H       -1.56656610       0.86975304       0.76076722
10
Frame=12 idx=003201 GeodesicLength=1.6098703945185537 rxn_smarts="[O:1]([C:2]([C:3](=[O:4])[H:9])([C:5](=[O:6])[H:10])[H:8])[H:7]>>[O:1]1[C@:2]([C:5](=[O:6])[H:10])([H:8])[C@:3]1([O:4][H:7])[H:9]"
O       -0.24627730      -1.20241045      -0.59791598
C        0.13008814       0.14205128      -0.63902105
C        1.10014642      -0.33792485       0.37704704
O        0.68028966      -0.63305211       1.55787273
C       -0.95956916       1.05758168      -0.15208262
O       -1.50861918       1.83875114      -0.88096191
H       -0.40219466      -1.41950302       0.95672622
H        0.65799777       0.48600990      -1.53421309
H        2.00833242      -0.87928842       0.08340048
H       -1.46019412       0.94778484       0.82914819
10
Frame=13 idx=003201 GeodesicLength=1.7373078665562993 rxn_smarts="[O:1]([C:2]([C:3](=[O:4])[H:9])([C:5](=[O:6])[H:10])[H:8])[H:7]>>[O:1]1[C@:2]([C:5](=[O:6])[H:10])([H:8])[C@:3]1([O:4][H:7])[H:9]"
O       -0.22139774      -1.18734456      -0.61222684
C        0.14898536       0.16268975      -0.63606168
C        1.09987530      -0.34955088       0.38313997
O        0.66547610      -0.62271535       1.56524204
C       -0.94883875       1.06841536      -0.15049296
O       -1.61569699       1.71718890      -0.91015511
H       -0.45051070      -1.42792246       0.90472417
H        0.68715600       0.53109825      -1.51364812
H        1.99016288      -0.92151002       0.09138051
H       -1.35521144       1.02965101       0.87809803
10
Frame=14 idx=003201 GeodesicLength=1.865427753397918 rxn_smarts="[O:1]([C:2]([C:3](=[O:4])[H:9])([C:5](=[O:6])[H:10])[H:8])[H:7]>>[O:1]1[C@:2]([C:5](=[O:6])[H:10])([H:8])[C@:3]1([O:4][H:7])[H:9]"
O       -0.19585255      -1.17490819      -0.62581908
C        0.16647958       0.18101932      -0.63421007
C        1.09834615      -0.36035460       0.38843449
O        0.65089939      -0.60660344       1.57275216
C       -0.94046110       1.07646736      -0.15105294
O       -1.70976731       1.59181882      -0.91565386
H       -0.50015790      -1.43414469       0.85002213
H        0.71315475       0.57465100      -1.49369016
H        1.97126733      -0.96066704       0.10008532
H       -1.25390835       1.11272146       0.90913201
10
Frame=15 idx=003201 GeodesicLength=1.9949085790157697 rxn_smarts="[O:1]([C:2]([C:3](=[O:4])[H:9])([C:5](=[O:6])[H:10])[H:8])[H:7]>>[O:1]1[C@:2]([C:5](=[O:6])[H:10])([H:8])[C@:3]1([O:4][H:7])[H:9]"
O       -0.16994827      -1.16468956      -0.63858692
C        0.18280444       0.19729364      -0.63373779
C        1.09529418      -0.37020445       0.39318649
O        0.63651790      -0.58433964       1.58043936
C       -0.93320272       1.08271396      -0.15364084
O       -1.79232917       1.46594874      -0.89920785
H       -0.55110851      -1.43877694       0.79193072
H        0.73674604       0.61607104      -1.47460254
H        1.95146697      -0.99707709       0.11061572
H       -1.15624086       1.19306030       0.92360364
10
Frame=16 idx=003201 GeodesicLength=2.12571287630751 rxn_smarts="[O:1]([C:2]([C:3](=[O:4])[H:9])([C:5](=[O:6])[H:10])[H:8])[H:7]>>[O:1]1[C@:2]([C:5](=[O:6])[H:10])([H:8])[C@:3]1([O:4][H:7])[H:9]"
O       -0.14399499      -1.15639506      -0.65053602
C        0.19773640       0.21182617      -0.63404623
C        1.09090473      -0.37943160       0.39767127
O        0.62325123      -0.55651327       1.58856016
C       -0.92782260       1.08692787      -0.15709842
O       -1.86241763       1.34163969      -0.86511279
H       -0.60265508      -1.44330244       0.72993501
H        0.75786802       0.65554022      -1.45591046
H        1.93098802      -1.03110539       0.12242264
H       -1.06385809       1.27081381       0.92411485
