13
Frame=0 idx=010713 GeodesicLength=0.0 rxn_smarts="[C:1]([O:2][C@@:3]1([H:11])[C:4]([H:12])([H:13])[O:5][C:6]1=[O:7])([H:8])([H:9])[H:10]>>[C:1]([O+:2]=[C-:3][C:4]([O:5][C:6](=[O:7])[H:11])([H:12])[H:13])([H:8])([H:9])[H:10]"
C        2.06710242       0.12904959      -0.39175851
O        1.00792570       0.51256276       0.51789461
C       -0.18393917       0.34726930       0.09533700
C       -1.40385566       0.66518197       0.87700970
O       -2.23219908      -0.19955954       0.13127429
C       -1.17724593      -0.89876795      -0.59830654
O       -1.32318846      -1.33327359      -1.71527062
H        1.63187763      -0.24607395      -1.31658768
H        2.65448646      -0.63811481       0.10764917
H        2.67418601       1.01320995      -0.57081620
H       -0.65285413      -1.53030814       0.20223290
H       -1.68026252       1.71351352       0.70839310
H       -1.38203332       0.46531090       1.95294872
13
Frame=1 idx=010713 GeodesicLength=0.08750330150954405 rxn_smarts="[C:1]([O:2][C@@:3]1([H:11])[C:4]([H:12])([H:13])[O:5][C:6]1=[O:7])([H:8])([H:9])[H:10]>>[C:1]([O+:2]=[C-:3][C:4]([O:5][C:6](=[O:7])[H:11])([H:12])[H:13])([H:8])([H:9])[H:10]"
C        2.07601236       0.13412927      -0.38438018
O        1.01510742       0.51318357       0.52269727
C       -0.17626623       0.31556063       0.10753744
C       -1.39763723       0.65952157       0.87777630
O       -2.24297432      -0.17720932       0.11576912
C       -1.21110933      -0.89716207      -0.61255451
O       -1.36621007      -1.32579231      -1.72917838
H        1.65229560      -0.30185738      -1.28775462
H        2.70173737      -0.58428269       0.14053915
H        2.64358647       1.03346398      -0.61256735
H       -0.65756749      -1.52666294       0.19304786
H       -1.64670677       1.71555694       0.71886891
H       -1.39026778       0.44155075       1.95019899
13
Frame=2 idx=010713 GeodesicLength=0.1745172408093342 rxn_smarts="[C:1]([O:2][C@@:3]1([H:11])[C:4]([H:12])([H:13])[O:5][C:6]1=[O:7])([H:8])([H:9])[H:10]>>[C:1]([O+:2]=[C-:3][C:4]([O:5][C:6](=[O:7])[H:11])([H:12])[H:13])([H:8])([H:9])[H:10]"
C        2.08450261       0.13908557      -0.37710165
O        1.02191290       0.51471583       0.52703055
C       -0.16839284       0.28263612       0.12099977
C       -1.39104060       0.65342462       0.87879346
O       -2.25249550      -0.15375544       0.09970867
C       -1.24411751      -0.89453358      -0.62671231
O       -1.40812238      -1.31605777      -1.74343953
H        1.67473430      -0.35905375      -1.25456845
H        2.74773428      -0.52572816       0.17203139
H        2.61014037       1.04949895      -0.65728572
H       -0.66305557      -1.52424869       0.18330432
H       -1.61230577       1.71648327       0.73001894
H       -1.39949429       0.41753303       1.94722055
13
Frame=3 idx=010713 GeodesicLength=0.2610525330547402 rxn_smarts="[C:1]([O:2][C@@:3]1([H:11])[C:4]([H:12])([H:13])[O:5][C:6]1=[O:7])([H:8])([H:9])[H:10]>>[C:1]([O+:2]=[C-:3][C:4]([O:5][C:6](=[O:7])[H:11])([H:12])[H:13])([H:8])([H:9])[H:10]"
C        2.09245205       0.14388008      -0.37004089
O        1.02820811       0.51717128       0.53075143
C       -0.16035189       0.24862183       0.13581149
C       -1.38410838       0.64691020       0.88007809
O       -2.26057235      -0.12926958       0.08311017
C       -1.27602856      -0.89081534      -0.64077776
O       -1.44855866      -1.30420948      -1.75797180
H        1.69923933      -0.41676963      -1.21702957
H        2.79176714      -0.46279248       0.20137362
H        2.57413711       1.06061955      -0.70446001
H       -0.66911213      -1.52297353       0.17328002
H       -1.57728580       1.71624621       0.74187725
H       -1.40978597       0.39338089       1.94399796
13
Frame=4 idx=010713 GeodesicLength=0.3471411484357013 rxn_smarts="[C:1]([O:2][C@@:3]1([H:11])[C:4]([H:12])([H:13])[O:5][C:6]1=[O:7])([H:8])([H:9])[H:10]>>[C:1]([O+:2]=[C-:3][C:4]([O:5][C:6](=[O:7])[H:11])([H:12])[H:13])([H:8])([H:9])[H:10]"
C        2.09976369       0.14849007      -0.36323677
O        1.03391183       0.52026998       0.53395334
C       -0.15213901       0.21356210       0.15220983
C       -1.37689913       0.64002703       0.88164021
O       -2.26701525      -0.10376495       0.06592184
C       -1.30658377      -0.88593131      -0.65476164
O       -1.48702544      -1.29030396      -1.77275890
H        1.72568070      -0.47418031      -1.17506691
H        2.83346618      -0.39584786       0.22767224
H        2.53559527       1.06632342      -0.75375230
H       -0.67561962      -1.52277837       0.16326002
H       -1.54179020       1.71485678       0.75440938
H       -1.42134524       0.36927736       1.94050965
13
Frame=5 idx=010713 GeodesicLength=0.43280907402363705 rxn_smarts="[C:1]([O:2][C@@:3]1([H:11])[C:4]([H:12])([H:13])[O:5][C:6]1=[O:7])([H:8])([H:9])[H:10]>>[C:1]([O+:2]=[C-:3][C:4]([O:5][C:6](=[O:7])[H:11])([H:12])[H:13])([H:8])([H:9])[H:10]"
C        2.10627347       0.15285123      -0.35694252
O        1.03888721       0.52341316       0.53662845
C       -0.14383320       0.17766128       0.16998478
C       -1.36938612       0.63293366       0.88333246
O       -2.27163995      -0.07731650       0.04819631
C       -1.33561768      -0.88003645      -0.66849464
O       -1.52349636      -1.27512341      -1.78735900
H        1.75409630      -0.52957177      -1.12984861
H        2.87199975      -0.32597075       0.24999676
H        2.49518231       1.06664002      -0.80326157
H       -0.68234735      -1.52352055       0.15377657
H       -1.50599019       1.71242238       0.76739137
H       -1.43412820       0.34561770       1.93659964
13
Frame=6 idx=010713 GeodesicLength=0.5181253852628429 rxn_smarts="[C:1]([O:2][C@@:3]1([H:11])[C:4]([H:12])([H:13])[O:5][C:6]1=[O:7])([H:8])([H:9])[H:10]>>[C:1]([O+:2]=[C-:3][C:4]([O:5][C:6](=[O:7])[H:11])([H:12])[H:13])([H:8])([H:9])[H:10]"
C        2.11201692       0.15689964      -0.35095479
O        1.04284513       0.52781353       0.53802929
C       -0.13558834       0.14169552       0.18887168
C       -1.36172647       0.62540690       0.88545612
O       -2.27439788      -0.05026772       0.03021638
C       -1.36291962      -0.87273756      -0.68229022
O       -1.55774137      -1.25805172      -1.80217151
H        1.78434579      -0.58363879      -1.08019320
H        2.90682584      -0.25317317       0.26894199
H        2.45338653       1.06028613      -0.85431193
H       -0.68855829      -1.52470576       0.14431970
H       -1.47071500       1.70870330       0.78165530
H       -1.44777325       0.32176969       1.93243117
13
Frame=7 idx=010713 GeodesicLength=0.6031905770815857 rxn_smarts="[C:1]([O:2][C@@:3]1([H:11])[C:4]([H:12])([H:13])[O:5][C:6]1=[O:7])([H:8])([H:9])[H:10]>>[C:1]([O+:2]=[C-:3][C:4]([O:5][C:6](=[O:7])[H:11])([H:12])[H:13])([H:8])([H:9])[H:10]"
C        2.11687035       0.16068069      -0.34545193
O        1.04607897       0.53080898       0.53963696
C       -0.12732964       0.10528025       0.20901826
C       -1.35384155       0.61793012       0.88751783
O       -2.27511060      -0.02233888       0.01163142
C       -1.38844100      -0.86457191      -0.69574473
O       -1.58964205      -1.24050548      -1.81650181
H        1.81612325      -0.63368931      -1.02849597
H        2.93817586      -0.17911094       0.28247693
H        2.40990967       1.04892089      -0.90376563
H       -0.69464752      -1.52655325       0.13601359
H       -1.43537452       1.70420053       0.79605388
H       -1.46277123       0.29894831       1.92761119
13
Frame=8 idx=010713 GeodesicLength=0.6880306840636055 rxn_smarts="[C:1]([O:2][C@@:3]1([H:11])[C:4]([H:12])([H:13])[O:5][C:6]1=[O:7])([H:8])([H:9])[H:10]>>[C:1]([O+:2]=[C-:3][C:4]([O:5][C:6](=[O:7])[H:11])([H:12])[H:13])([H:8])([H:9])[H:10]"
C        2.12105448       0.16402037      -0.34025419
O        1.04803249       0.53520595       0.53941129
C       -0.11940517       0.07015804       0.22904849
C       -1.34596484       0.61006922       0.88999716
O       -2.27410213       0.00558944      -0.00661366
C       -1.41229859      -0.85505901      -0.70927464
O       -1.62003445      -1.22181325      -1.83071277
H        1.84961828      -0.68113082      -0.97317655
H        2.96490605      -0.10382646       0.29267407
H        2.36684500       1.03057504      -0.95324880
H       -0.69913908      -1.52806326       0.12762043
H       -1.40170186       1.69849218       0.81208225
H       -1.47781019       0.27578256       1.92244692
13
Frame=9 idx=010713 GeodesicLength=0.7727361248897362 rxn_smarts="[C:1]([O:2][C@@:3]1([H:11])[C:4]([H:12])([H:13])[O:5][C:6]1=[O:7])([H:8])([H:9])[H:10]>>[C:1]([O+:2]=[C-:3][C:4]([O:5][C:6](=[O:7])[H:11])([H:12])[H:13])([H:8])([H:9])[H:10]"
C        2.12446173       0.16707139      -0.33544527
O        1.04936693       0.53745666       0.53974573
C       -0.11167302       0.03553115       0.24921909
C       -1.33792996       0.60246860       0.89212434
O       -2.27121434       0.03394665      -0.02512417
C       -1.43463778      -0.84506641      -0.72230064
O       -1.64896503      -1.20385276      -1.84390615
H        1.88418985      -0.72292380      -0.91788579
H        2.98771812      -0.02953540       0.29754319
H        2.32359169       1.00843254      -0.99882259
H       -0.70279678      -1.52973624       0.12059748
H       -1.36856107       1.69225124       0.82789010
H       -1.49355033       0.25395638       1.91636469
13
Frame=10 idx=010713 GeodesicLength=0.8573002181840733 rxn_smarts="[C:1]([O:2][C@@:3]1([H:11])[C:4]([H:12])([H:13])[O:5][C:6]1=[O:7])([H:8])([H:9])[H:10]>>[C:1]([O+:2]=[C-:3][C:4]([O:5][C:6](=[O:7])[H:11])([H:12])[H:13])([H:8])([H:9])[H:10]"
C        2.12746124       0.16978449      -0.33077460
O        1.04969609       0.54017575       0.53883864
C       -0.10435127       0.00281210       0.26831986
C       -1.32999477       0.59471013       0.89434035
O       -2.26697687       0.06196753      -0.04302930
C       -1.45581163      -0.83422658      -0.73518493
O       -1.67741082      -1.18585405      -1.85648069
H        1.91991019      -0.76057137      -0.86082690
H        3.00614666       0.04388861       0.29906241
H        2.28201495       0.98083823      -1.04239915
H       -0.70448129      -1.53080507       0.11367972
H       -1.33738411       1.68514875       0.84473807
H       -1.50881837       0.23213148       1.90971652
13
Frame=11 idx=010713 GeodesicLength=0.9416982470290943 rxn_smarts="[C:1]([O:2][C@@:3]1([H:11])[C:4]([H:12])([H:13])[O:5][C:6]1=[O:7])([H:8])([H:9])[H:10]>>[C:1]([O+:2]=[C-:3][C:4]([O:5][C:6](=[O:7])[H:11])([H:12])[H:13])([H:8])([H:9])[H:10]"
C        2.13017572       0.17235911      -0.32623731
O        1.04930364       0.54261223       0.53728424
C       -0.09739960      -0.02805983       0.28610022
C       -1.32215706       0.58702465       0.89633985
O       -2.26157703       0.08958484      -0.06040230
C       -1.47615869      -0.82307789      -0.74766194
O       -1.70592719      -1.16885476      -1.86799949
H        1.95618762      -0.79286425      -0.80397458
H        3.02043504       0.11471828       0.29732096
H        2.24297770       0.94965785      -1.08232617
H       -0.70431075      -1.53143340       0.10730619
H       -1.30795370       1.67750529       0.86188773
H       -1.52359567       0.21082790       1.90236261
13
Frame=12 idx=010713 GeodesicLength=1.0255462872653212 rxn_smarts="[C:1]([O:2][C@@:3]1([H:11])[C:4]([H:12])([H:13])[O:5][C:6]1=[O:7])([H:8])([H:9])[H:10]>>[C:1]([O+:2]=[C-:3][C:4]([O:5][C:6](=[O:7])[H:11])([H:12])[H:13])([H:8])([H:9])[H:10]"
C        2.13235167       0.17566211      -0.32206540
O        1.04941066       0.54019172       0.53901290
C       -0.09071518      -0.05843245       0.30302587
C       -1.31410612       0.58067081       0.89646242
O       -2.25459973       0.11700051      -0.07853090
C       -1.49599679      -0.81411255      -0.75808471
O       -1.73449364      -1.15779043      -1.87606768
H        1.98980004      -0.81428558      -0.75839883
H        3.03096070       0.17489827       0.29217531
H        2.20801715       0.92472608      -1.11090299
H       -0.70342166      -1.53278125       0.10497193
H       -1.27830821       1.67049731       0.87512924
H       -1.53889889       0.19375546       1.89327284
13
Frame=13 idx=010713 GeodesicLength=1.1097598885251023 rxn_smarts="[C:1]([O:2][C@@:3]1([H:11])[C:4]([H:12])([H:13])[O:5][C:6]1=[O:7])([H:8])([H:9])[H:10]>>[C:1]([O+:2]=[C-:3][C:4]([O:5][C:6](=[O:7])[H:11])([H:12])[H:13])([H:8])([H:9])[H:10]"
C        2.13491305       0.17781739      -0.31753831
O        1.04798486       0.54230610       0.53622370
C       -0.08437631      -0.08590394       0.31782585
C       -1.30641326       0.57286831       0.89804763
O       -2.24743576       0.14381920      -0.09458980
C       -1.51559158      -0.80205880      -0.77004701
O       -1.76468340      -1.14182505      -1.88570582
H        2.02761532      -0.83844364      -0.70092529
H        3.03871532       0.24243402       0.28563692
H        2.17363530       0.88708352      -1.14519482
H       -0.70001753      -1.53254979       0.09874868
H       -1.25210107       1.66161599       0.89302960
H       -1.55224494       0.17283669       1.88448866
13
Frame=14 idx=010713 GeodesicLength=1.1940056012730893 rxn_smarts="[C:1]([O:2][C@@:3]1([H:11])[C:4]([H:12])([H:13])[O:5][C:6]1=[O:7])([H:8])([H:9])[H:10]>>[C:1]([O+:2]=[C-:3][C:4]([O:5][C:6](=[O:7])[H:11])([H:12])[H:13])([H:8])([H:9])[H:10]"
C        2.13759272       0.17970306      -0.31287781
O        1.04603813       0.54471780       0.53243642
C       -0.07823826      -0.11184330       0.33113767
C       -1.29884053       0.56481646       0.89960794
O       -2.23970756       0.17022631      -0.10979489
C       -1.53506320      -0.78924908      -0.78207066
O       -1.79613150      -1.12554311      -1.89484789
H        2.06665298      -0.85900694      -0.64138720
H        3.04351812       0.30956614       0.27647940
H        2.14156532       0.84495164      -1.17745188
H       -0.69512337      -1.53195887       0.09193593
H       -1.22750349       1.65204692       0.91164664
H       -1.56475937       0.15157297       1.87518633
13
Frame=15 idx=010713 GeodesicLength=1.2781946681709138 rxn_smarts="[C:1]([O:2][C@@:3]1([H:11])[C:4]([H:12])([H:13])[O:5][C:6]1=[O:7])([H:8])([H:9])[H:10]>>[C:1]([O+:2]=[C-:3][C:4]([O:5][C:6](=[O:7])[H:11])([H:12])[H:13])([H:8])([H:9])[H:10]"
C        2.14044084       0.18149058      -0.30808526
O        1.04371510       0.54713867       0.52792776
C       -0.07224516      -0.13647326       0.34301165
C       -1.29137315       0.55660445       0.90093680
O       -2.23148178       0.19621670      -0.12427929
C       -1.55456544      -0.77596980      -0.79395910
O       -1.82903640      -1.10947112      -1.90314021
H        2.10636362      -0.87528922      -0.58105479
H        3.04552015       0.37513046       0.26487833
H        2.11237723       0.79962017      -1.20679389
H       -0.68890373      -1.53115933       0.08484644
H       -1.20426813       1.64187899       0.93047061
H       -1.57654316       0.13028273       1.86524094
13
Frame=16 idx=010713 GeodesicLength=1.3623007752357454 rxn_smarts="[C:1]([O:2][C@@:3]1([H:11])[C:4]([H:12])([H:13])[O:5][C:6]1=[O:7])([H:8])([H:9])[H:10]>>[C:1]([O+:2]=[C-:3][C:4]([O:5][C:6](=[O:7])[H:11])([H:12])[H:13])([H:8])([H:9])[H:10]"
C        2.14366473       0.18323281      -0.30311638
O        1.04084948       0.55038977       0.52185345
C       -0.06636201      -0.15957564       0.35308682
C       -1.28406717       0.54807188       0.90212641
O       -2.22311842       0.22159875      -0.13773842
C       -1.57439300      -0.76211334      -0.80577361
O       -1.86403553      -1.09337698      -1.91053495
H        2.14669142      -0.88745314      -0.51917269
H        3.04482422       0.43908040       0.25136465
H        2.08704540       0.75066026      -1.23362694
H       -0.68118404      -1.53000705       0.07700475
H       -1.18267049       1.63099373       0.94975423
H       -1.58724458       0.10849856       1.85477268
