13
Frame=0 idx=008521 GeodesicLength=0.0 rxn_smarts="[O:1]=[C:2]1[C:3]([H:8])([H:9])[O:4][C@@:5]2([H:10])[C:6]([H:11])([H:12])[C@@:7]12[H:13]>>[O:1]=[C:2]1[C:3]([H:8])([H:9])[O:4][C:5]([H:10])=[C:7]1[C:6]([H:11])([H:12])[H:13]"
O        1.18637497       1.99359026       0.81945726
C        0.80216082       1.07214314       0.15912059
C        1.57774748      -0.21231809      -0.11590367
O        0.63852176      -1.12748802      -0.64246132
C       -0.59234778      -0.45452013      -0.81908062
C       -1.43847229      -0.28184069       0.47935260
C       -0.54688577       0.96391031      -0.56599942
H        2.01197483      -0.58603509       0.81406137
H        2.38572068      -0.03868727      -0.83426561
H       -1.13195658      -0.88380939      -1.65438072
H       -0.98514408      -0.83671071       1.29523562
H       -2.49796828      -0.44480059       0.32012414
H       -1.40972570       0.83656631       0.74473984
13
Frame=1 idx=008521 GeodesicLength=0.09957416487648482 rxn_smarts="[O:1]=[C:2]1[C:3]([H:8])([H:9])[O:4][C@@:5]2([H:10])[C:6]([H:11])([H:12])[C@@:7]12[H:13]>>[O:1]=[C:2]1[C:3]([H:8])([H:9])[O:4][C:5]([H:10])=[C:7]1[C:6]([H:11])([H:12])[H:13]"
O        1.18443047       1.98763757       0.82374745
C        0.80111842       1.06548186       0.16314413
C        1.58313014      -0.21275749      -0.12190901
O        0.64948163      -1.12940880      -0.65680022
C       -0.58448952      -0.46555979      -0.82441437
C       -1.44224930      -0.27411412       0.48454866
C       -0.55094891       0.94585834      -0.54533548
H        2.01797623      -0.59390798       0.80482660
H        2.39059323      -0.02832633      -0.83775079
H       -1.12628231      -0.88956070      -1.66089721
H       -0.99508529      -0.82092192       1.30936571
H       -2.49897762      -0.44665873       0.31707091
H       -1.42869717       0.86223810       0.74440363
13
Frame=2 idx=008521 GeodesicLength=0.19924498517814854 rxn_smarts="[O:1]=[C:2]1[C:3]([H:8])([H:9])[O:4][C@@:5]2([H:10])[C:6]([H:11])([H:12])[C@@:7]12[H:13]>>[O:1]=[C:2]1[C:3]([H:8])([H:9])[O:4][C:5]([H:10])=[C:7]1[C:6]([H:11])([H:12])[H:13]"
O        1.18225772       1.98138528       0.82844116
C        0.80002412       1.05857506       0.16739218
C        1.58855477      -0.21318190      -0.12799936
O        0.66064701      -1.13100809      -0.67183976
C       -0.57661733      -0.47661776      -0.82957828
C       -1.44610814      -0.26658295       0.49021813
C       -0.55469592       0.92732597      -0.52465305
H        2.02399337      -0.60205134       0.79532908
H        2.39551390      -0.01764778      -0.84106398
H       -1.12073249      -0.89515232      -1.66721957
H       -1.00503784      -0.80487730       1.32398164
H       -2.49992652      -0.44859437       0.31452724
H       -1.44787265       0.88842749       0.74246457
13
Frame=3 idx=008521 GeodesicLength=0.29899725615135647 rxn_smarts="[O:1]=[C:2]1[C:3]([H:8])([H:9])[O:4][C@@:5]2([H:10])[C:6]([H:11])([H:12])[C@@:7]12[H:13]>>[O:1]=[C:2]1[C:3]([H:8])([H:9])[O:4][C:5]([H:10])=[C:7]1[C:6]([H:11])([H:12])[H:13]"
O        1.17986197       1.97481372       0.83355968
C        0.79887969       1.05141474       0.17187703
C        1.59401877      -0.21358370      -0.13417734
O        0.67201117      -1.13224032      -0.68760643
C       -0.56873275      -0.48768909      -0.83456424
C       -1.45005500      -0.25926729       0.49640173
C       -0.55813583       0.90830715      -0.50390949
H        2.03002604      -0.61047443       0.78554671
H        2.40047655      -0.00663560      -0.84418999
H       -1.11532053      -0.90057200      -1.67333121
H       -1.01501944      -0.78857502       1.33912875
H       -2.50082122      -0.45061861       0.31251700
H       -1.46718942       0.91512045       0.73874779
13
Frame=4 idx=008521 GeodesicLength=0.3988414799729995 rxn_smarts="[O:1]=[C:2]1[C:3]([H:8])([H:9])[O:4][C@@:5]2([H:10])[C:6]([H:11])([H:12])[C@@:7]12[H:13]>>[O:1]=[C:2]1[C:3]([H:8])([H:9])[O:4][C:5]([H:10])=[C:7]1[C:6]([H:11])([H:12])[H:13]"
O        1.17725502       1.96790756       0.83913571
C        0.79768829       1.04399318       0.17661986
C        1.59951972      -0.21395645      -0.14044713
O        0.68356383      -1.13305697      -0.70412331
C       -0.56083740      -0.49876845      -0.83936247
C       -1.45409589      -0.25218999       0.50313856
C       -0.56127895       0.88879556      -0.48306132
H        2.03607939      -0.61919366       0.77545464
H        2.40547084       0.00472593      -0.84712525
H       -1.11005895      -0.90580848      -1.67921281
H       -1.02504549      -0.77200728       1.35485640
H       -2.50166707      -0.45275486       0.31106060
H       -1.48659333       0.94231393       0.73306652
13
Frame=5 idx=008521 GeodesicLength=0.4987542395368144 rxn_smarts="[O:1]=[C:2]1[C:3]([H:8])([H:9])[O:4][C@@:5]2([H:10])[C:6]([H:11])([H:12])[C@@:7]12[H:13]>>[O:1]=[C:2]1[C:3]([H:8])([H:9])[O:4][C:5]([H:10])=[C:7]1[C:6]([H:11])([H:12])[H:13]"
O        1.17443870       1.96064408       0.84519262
C        0.79644865       1.03629922       0.18164001
C        1.60505395      -0.21428829      -0.14681177
O        0.69529521      -1.13340330      -0.72141682
C       -0.55293381      -0.50985184      -0.84396454
C       -1.45823719      -0.24535811       0.51047546
C       -0.56413549       0.86877898      -0.46205286
H        2.04215714      -0.62821635       0.76502455
H        2.41048677       0.01645825      -0.84985340
H       -1.10496578      -0.91084909      -1.68484379
H       -1.03514365      -0.75517899       1.37120878
H       -2.50246825      -0.45500514       0.31018948
H       -1.50599627       0.96997059       0.72521229
13
Frame=6 idx=008521 GeodesicLength=0.5987133485921373 rxn_smarts="[O:1]=[C:2]1[C:3]([H:8])([H:9])[O:4][C@@:5]2([H:10])[C:6]([H:11])([H:12])[C@@:7]12[H:13]>>[O:1]=[C:2]1[C:3]([H:8])([H:9])[O:4][C:5]([H:10])=[C:7]1[C:6]([H:11])([H:12])[H:13]"
O        1.17142087       1.95300005       0.85176008
C        0.79516152       1.02832250       0.18695957
C        1.61061599      -0.21456904      -0.15327326
O        0.70718826      -1.13321967      -0.73951010
C       -0.54502459      -0.52093121      -0.84836057
C       -1.46248638      -0.23878138       0.51845922
C       -0.56671574       0.84824530      -0.44083091
H        2.04826285      -0.63755155       0.75422432
H        2.41551011       0.02858303      -0.85236187
H       -1.10005782      -0.91567738      -1.69020348
H       -1.04534162      -0.73807841       1.38823316
H       -2.50322893      -0.45738544       0.30993286
H       -1.52530453       0.99804320       0.71497099
13
Frame=7 idx=008521 GeodesicLength=0.6987071681272335 rxn_smarts="[O:1]=[C:2]1[C:3]([H:8])([H:9])[O:4][C@@:5]2([H:10])[C:6]([H:11])([H:12])[C@@:7]12[H:13]>>[O:1]=[C:2]1[C:3]([H:8])([H:9])[O:4][C:5]([H:10])=[C:7]1[C:6]([H:11])([H:12])[H:13]"
O        1.16820819       1.94495284       0.85887944
C        0.79382584       1.02005019       0.19261018
C        1.61620082      -0.21478437      -0.15983947
O        0.71922498      -1.13243878      -0.75842568
C       -0.53711283      -0.53200243      -0.85253946
C       -1.46684675      -0.23246547       0.52713637
C       -0.56903327       0.82717888      -0.41933727
H        2.05440620      -0.64720985       0.74301689
H        2.42052213       0.04112621      -0.85464319
H       -1.09535350      -0.92028739      -1.69526234
H       -1.05567266      -0.72069947       1.40597385
H       -2.50395392      -0.45989277       0.31032198
H       -1.54441523       1.02647242       0.70210871
13
Frame=8 idx=008521 GeodesicLength=0.7986975697458767 rxn_smarts="[O:1]=[C:2]1[C:3]([H:8])([H:9])[O:4][C@@:5]2([H:10])[C:6]([H:11])([H:12])[C@@:7]12[H:13]>>[O:1]=[C:2]1[C:3]([H:8])([H:9])[O:4][C:5]([H:10])=[C:7]1[C:6]([H:11])([H:12])[H:13]"
O        1.16480874       1.93647609       0.86658012
C        0.79244106       1.01146827       0.19861689
C        1.62179920      -0.21491705      -0.16651229
O        0.73137701      -1.13098829      -0.77817960
C       -0.52919962      -0.54305413      -0.85649301
C       -1.47133101      -0.22640225       0.53655500
C       -0.57110097       0.80555944      -0.39750900
H        2.06059227      -0.65719240       0.73135855
H        2.42550178       0.05411286      -0.85667923
H       -1.09086953      -0.92466399      -1.69999573
H       -1.06617454      -0.70302603       1.42447393
H       -2.50465037      -0.46252892       0.31138748
H       -1.56319401       1.05515638       0.68639689
13
Frame=9 idx=008521 GeodesicLength=0.8979350958679766 rxn_smarts="[O:1]=[C:2]1[C:3]([H:8])([H:9])[O:4][C@@:5]2([H:10])[C:6]([H:11])([H:12])[C@@:7]12[H:13]>>[O:1]=[C:2]1[C:3]([H:8])([H:9])[O:4][C:5]([H:10])=[C:7]1[C:6]([H:11])([H:12])[H:13]"
O        1.16120386       1.92761558       0.87479155
C        0.79100255       1.00258781       0.20493035
C        1.62740746      -0.21494025      -0.17328970
O        0.74363033      -1.12878967      -0.79869956
C       -0.52125022      -0.55413912      -0.86023977
C       -1.47599141      -0.22037896       0.54665522
C       -0.57293232       0.78338756      -0.37541979
H        2.06682930      -0.66742602       0.71923740
H        2.43043330       0.06752476      -0.85846672
H       -1.08657292      -0.92894028      -1.70437717
H       -1.07700670      -0.68503245       1.44361817
H       -2.50536015      -0.46506656       0.31301531
H       -1.58139308       1.08359761       0.66824470
13
Frame=10 idx=008521 GeodesicLength=0.9971408155063519 rxn_smarts="[O:1]=[C:2]1[C:3]([H:8])([H:9])[O:4][C@@:5]2([H:10])[C:6]([H:11])([H:12])[C@@:7]12[H:13]>>[O:1]=[C:2]1[C:3]([H:8])([H:9])[O:4][C:5]([H:10])=[C:7]1[C:6]([H:11])([H:12])[H:13]"
O        1.15741780       1.91827710       0.88366121
C        0.78950540       0.99336144       0.21167250
C        1.63301262      -0.21484505      -0.18018474
O        0.75593777      -1.12575614      -0.82008492
C       -0.51330176      -0.56519457      -0.86373801
C       -1.48081056      -0.21457380       0.55758281
C       -0.57453190       0.76060668      -0.35287575
H        2.07313708      -0.67798938       0.70656754
H        2.43528207       0.08144457      -0.85999541
H       -1.08253041      -0.93297209      -1.70837530
H       -1.08810499      -0.66669823       1.46359897
H       -2.50606513      -0.46771084       0.31537203
H       -1.59894800       1.11205029       0.64679907
13
Frame=11 idx=008521 GeodesicLength=1.09633634900546 rxn_smarts="[O:1]=[C:2]1[C:3]([H:8])([H:9])[O:4][C@@:5]2([H:10])[C:6]([H:11])([H:12])[C@@:7]12[H:13]>>[O:1]=[C:2]1[C:3]([H:8])([H:9])[O:4][C:5]([H:10])=[C:7]1[C:6]([H:11])([H:12])[H:13]"
O        1.15345242       1.90842979       0.89323302
C        0.78794274       0.98376554       0.21888905
C        1.63860383      -0.21460746      -0.18720622
O        0.76826195      -1.12178969      -0.84234856
C       -0.50535961      -0.57620999      -0.86697860
C       -1.48580975      -0.20896602       0.56938364
C       -0.57590663       0.73718126      -0.32980172
H        2.07953647      -0.68888217       0.69329114
H        2.44001147       0.09591414      -0.86125294
H       -1.07876896      -0.93675563      -1.71195618
H       -1.09952797      -0.64799986       1.48445984
H       -2.50677770      -0.47044760       0.31849017
H       -1.61565825       1.14036769       0.62179736
13
Frame=12 idx=008521 GeodesicLength=1.1955909654854349 rxn_smarts="[O:1]=[C:2]1[C:3]([H:8])([H:9])[O:4][C@@:5]2([H:10])[C:6]([H:11])([H:12])[C@@:7]12[H:13]>>[O:1]=[C:2]1[C:3]([H:8])([H:9])[O:4][C:5]([H:10])=[C:7]1[C:6]([H:11])([H:12])[H:13]"
O        1.14932610       1.89804705       0.90356179
C        0.78631569       0.97377989       0.22663587
C        1.64416497      -0.21420780      -0.19436086
O        0.78055016      -1.11679410      -0.86548939
C       -0.49742733      -0.58716857      -0.86995046
C       -1.49099898      -0.20355109       0.58209528
C       -0.57706837       0.71307606      -0.30613830
H        2.08603624      -0.70011133       0.67934428
H        2.44458528       0.11096988      -0.86224377
H       -1.07530276      -0.94027890      -1.71508066
H       -1.11131078      -0.62890660       1.50624591
H       -2.50750643      -0.47328216       0.32239350
H       -1.63136377       1.16842768       0.59298681
13
Frame=13 idx=008521 GeodesicLength=1.2948376009810036 rxn_smarts="[O:1]=[C:2]1[C:3]([H:8])([H:9])[O:4][C@@:5]2([H:10])[C:6]([H:11])([H:12])[C@@:7]12[H:13]>>[O:1]=[C:2]1[C:3]([H:8])([H:9])[O:4][C:5]([H:10])=[C:7]1[C:6]([H:11])([H:12])[H:13]"
O        1.14502505       1.88708839       0.91471434
C        0.78460773       0.96337058       0.23497792
C        1.64968271      -0.21360661      -0.20165978
O        0.79275225      -1.11065062      -0.88950539
C       -0.48951420      -0.59806616      -0.87263052
C       -1.49642882      -0.19826141       0.59577075
C       -0.57803525       0.68823836      -0.28178141
H        2.09268747      -0.71165524       0.66463984
H        2.44894124       0.12668021      -0.86296692
H       -1.07216513      -0.94354017      -1.71770795
H       -1.12355741      -0.60936642       1.52898862
H       -2.50828831      -0.47614272       0.32712155
H       -1.64570733       1.19591180       0.56003895
13
Frame=14 idx=008521 GeodesicLength=1.3941274823100107 rxn_smarts="[O:1]=[C:2]1[C:3]([H:8])([H:9])[O:4][C@@:5]2([H:10])[C:6]([H:11])([H:12])[C@@:7]12[H:13]>>[O:1]=[C:2]1[C:3]([H:8])([H:9])[O:4][C:5]([H:10])=[C:7]1[C:6]([H:11])([H:12])[H:13]"
O        1.14056431       1.87552496       0.92672701
C        0.78281137       0.95250320       0.24397219
C        1.65513136      -0.21277134      -0.20911079
O        0.80479238      -1.10324731      -0.91437395
C       -0.48162286      -0.60887353      -0.87501506
C       -1.50212648      -0.19307240       0.61044179
C       -0.57881315       0.66261647      -0.25666079
H        2.09950297      -0.72349352       0.64910161
H        2.45302184       0.14309052      -0.86341733
H       -1.06936897      -0.94652331      -1.71980468
H       -1.13633498      -0.58932182       1.55272492
H       -2.50914502      -0.47901475       0.33268665
H       -1.65841276       1.22258284       0.52272844
13
Frame=15 idx=008521 GeodesicLength=1.4935012115274595 rxn_smarts="[O:1]=[C:2]1[C:3]([H:8])([H:9])[O:4][C@@:5]2([H:10])[C:6]([H:11])([H:12])[C@@:7]12[H:13]>>[O:1]=[C:2]1[C:3]([H:8])([H:9])[O:4][C:5]([H:10])=[C:7]1[C:6]([H:11])([H:12])[H:13]"
O        1.13594392       1.86332691       0.93966287
C        0.78091166       0.94113915       0.25369573
C        1.66048672      -0.21166259      -0.21672495
O        0.81659210      -1.09446510      -0.94006278
C       -0.47376256      -0.61956550      -0.87709277
C       -1.50813794      -0.18793045       0.62614368
C       -0.57941847       0.63614611      -0.23068441
H        2.10652281      -0.73559951       0.63263682
H        2.45675425       0.16026720      -0.86361051
H       -1.06693734      -0.94921736      -1.72133432
H       -1.14973652      -0.56870809       1.57748388
H       -2.51011183      -0.48185076       0.33910900
H       -1.66910679       1.24811999       0.48077775
13
Frame=16 idx=008521 GeodesicLength=1.5929855949749587 rxn_smarts="[O:1]=[C:2]1[C:3]([H:8])([H:9])[O:4][C@@:5]2([H:10])[C:6]([H:11])([H:12])[C@@:7]12[H:13]>>[O:1]=[C:2]1[C:3]([H:8])([H:9])[O:4][C:5]([H:10])=[C:7]1[C:6]([H:11])([H:12])[H:13]"
O        1.13115340       1.85046465       0.95358470
C        0.77888495       0.92923176       0.26423017
C        1.66572113      -0.21023481      -0.22451598
O        0.82806306      -1.08417981      -0.96653104
C       -0.46594317      -0.63011249      -0.87885368
C       -1.51451899      -0.18277366       0.64290438
C       -0.57986769       0.60875634      -0.20376091
H        2.11379460      -0.74793684       0.61514517
H        2.46005638       0.17828357      -0.86356771
H       -1.06489100      -0.95160975      -1.72227109
H       -1.16387625      -0.54742306       1.60329032
H       -2.51123531      -0.48459224       0.34640419
H       -1.67734111       1.27212634       0.43394147
