14
Frame=0 idx=000549 GeodesicLength=0.0 rxn_smarts="[C:1]([C:2]([C:3]#[C:4][C:5]([O:6][H:14])([H:12])[H:13])([H:10])[H:11])([H:7])([H:8])[H:9]>>[C:1]([C:2]([C:3](=[C:4]=[C:5]([H:12])[H:13])[O:6][H:14])([H:10])[H:11])([H:7])([H:8])[H:9]"
C       -1.65580498       1.04408667      -0.17233457
C       -1.20786418      -0.41490025      -0.22492784
C        0.25770007      -0.60410379      -0.27043454
C        1.25047273      -1.11849383      -0.94598837
C        2.24355573      -0.74743156       0.00733055
O        1.01231664      -0.05334166       1.05874981
H       -1.25196483       1.60645889      -1.01610165
H       -2.74402021       1.11662937      -0.20513892
H       -1.32986852       1.52752774       0.75207364
H       -1.62413918      -0.96361862       0.62536127
H       -1.58622329      -0.89456538      -1.13017049
H        2.91452939       0.08758386      -0.19455037
H        2.67857723      -1.49823758       0.66414619
H        1.04273340       0.91240620       1.05198528
14
Frame=1 idx=000549 GeodesicLength=0.08244794185911057 rxn_smarts="[C:1]([C:2]([C:3]#[C:4][C:5]([O:6][H:14])([H:12])[H:13])([H:10])[H:11])([H:7])([H:8])[H:9]>>[C:1]([C:2]([C:3](=[C:4]=[C:5]([H:12])[H:13])[O:6][H:14])([H:10])[H:11])([H:7])([H:8])[H:9]"
C       -1.66443930       1.04590775      -0.18128506
C       -1.21661564      -0.41348578      -0.22376912
C        0.24910675      -0.60170258      -0.25618673
C        1.24492926      -1.10491180      -0.92951942
C        2.25926048      -0.74847307       0.00327321
O        1.03011666      -0.05682048       1.08405624
H       -1.25439429       1.60432365      -1.02463095
H       -2.75239052       1.11829887      -0.22276164
H       -1.34495835       1.53362907       0.74297305
H       -1.63849766      -0.95823668       0.62639059
H       -1.59052708      -0.89715941      -1.12876017
H        2.93189477       0.08140138      -0.21346056
H        2.70528272      -1.51159051       0.63804197
H        1.04123220       0.90881958       1.08563859
14
Frame=2 idx=000549 GeodesicLength=0.16487386219860106 rxn_smarts="[C:1]([C:2]([C:3]#[C:4][C:5]([O:6][H:14])([H:12])[H:13])([H:10])[H:11])([H:7])([H:8])[H:9]>>[C:1]([C:2]([C:3](=[C:4]=[C:5]([H:12])[H:13])[O:6][H:14])([H:10])[H:11])([H:7])([H:8])[H:9]"
C       -1.67294375       1.04775725      -0.19052658
C       -1.22550217      -0.41207017      -0.22253328
C        0.24027508      -0.59945125      -0.24117144
C        1.23938783      -1.09130626      -0.91194125
C        2.27508209      -0.74922690      -0.00100998
O        1.04852122      -0.06061214       1.10997936
H       -1.25636665       1.60199557      -1.03337905
H       -2.76054540       1.12010142      -0.24097238
H       -1.36005401       1.53987333       0.73350882
H       -1.65334224      -0.95263597       0.62740898
H       -1.59464283      -0.89983713      -1.12731849
H        2.94877326       0.07545981      -0.23350676
H        2.73209886      -1.52449104       0.61073401
H        1.03925871       0.90444347       1.12072807
14
Frame=3 idx=000549 GeodesicLength=0.24724718749814278 rxn_smarts="[C:1]([C:2]([C:3]#[C:4][C:5]([O:6][H:14])([H:12])[H:13])([H:10])[H:11])([H:7])([H:8])[H:9]>>[C:1]([C:2]([C:3](=[C:4]=[C:5]([H:12])[H:13])[O:6][H:14])([H:10])[H:11])([H:7])([H:8])[H:9]"
C       -1.68129448       1.04962510      -0.20006719
C       -1.23450178      -0.41065168      -0.22121914
C        0.23120760      -0.59733195      -0.22537086
C        1.23385259      -1.07768776      -0.89318214
C        2.29098938      -0.74967749      -0.00551868
O        1.06757201      -0.06467287       1.13651644
H       -1.25785555       1.59946013      -1.04233864
H       -2.76844995       1.12201180      -0.25978856
H       -1.37514154       1.54626151       0.72366238
H       -1.66866109      -0.94681443       0.62840024
H       -1.59853835      -0.90260382      -1.12583707
H        2.96508918       0.06974258      -0.25474109
H        2.75892666      -1.53688791       0.58218122
H        1.03680531       0.89922678       1.15730309
14
Frame=4 idx=000549 GeodesicLength=0.32959530781807517 rxn_smarts="[C:1]([C:2]([C:3]#[C:4][C:5]([O:6][H:14])([H:12])[H:13])([H:10])[H:11])([H:7])([H:8])[H:9]>>[C:1]([C:2]([C:3](=[C:4]=[C:5]([H:12])[H:13])[O:6][H:14])([H:10])[H:11])([H:7])([H:8])[H:9]"
C       -1.68950812       1.05149770      -0.20989788
C       -1.24359051      -0.40922453      -0.21983333
C        0.22191840      -0.59528377      -0.20878935
C        1.22834858      -1.06401125      -0.87320661
C        2.30698207      -0.74984858      -0.01023909
O        1.08731536      -0.06888428       1.16364088
H       -1.25889846       1.59672396      -1.05148732
H       -2.77611914       1.12397841      -0.27919693
H       -1.39025376       1.55278538       0.71343888
H       -1.68441828      -0.94079166       0.62933616
H       -1.60216557      -0.90545766      -1.12432518
H        2.98086138       0.06415104      -0.27718377
H        2.78563573      -1.54882904       0.55240443
H        1.03389234       0.89319427       1.19533911
14
Frame=5 idx=000549 GeodesicLength=0.41188122908920194 rxn_smarts="[C:1]([C:2]([C:3]#[C:4][C:5]([O:6][H:14])([H:12])[H:13])([H:10])[H:11])([H:7])([H:8])[H:9]>>[C:1]([C:2]([C:3](=[C:4]=[C:5]([H:12])[H:13])[O:6][H:14])([H:10])[H:11])([H:7])([H:8])[H:9]"
C       -1.69755869       1.05336143      -0.22002672
C       -1.25273696      -0.40778873      -0.21837552
C        0.21241507      -0.59327779      -0.19140471
C        1.22289471      -1.05027953      -0.85193296
C        2.32302151      -0.74972482      -0.01517603
O        1.10780203      -0.07318098       1.19135227
H       -1.25946405       1.59377535      -1.06081294
H       -2.78351364       1.12596647      -0.29922184
H       -1.40538137       1.55943749       0.70282456
H       -1.70059408      -0.93457143       0.63019541
H       -1.60547578      -0.90840440      -1.12277668
H        2.99599123       0.05865023      -0.30089937
H        2.81208575      -1.56026681       0.52135680
H        1.03051427       0.88630352       1.23489774
14
Frame=6 idx=000549 GeodesicLength=0.49408488277195445 rxn_smarts="[C:1]([C:2]([C:3]#[C:4][C:5]([O:6][H:14])([H:12])[H:13])([H:10])[H:11])([H:7])([H:8])[H:9]>>[C:1]([C:2]([C:3](=[C:4]=[C:5]([H:12])[H:13])[O:6][H:14])([H:10])[H:11])([H:7])([H:8])[H:9]"
C       -1.70542923       1.05520158      -0.23045897
C       -1.26190924      -0.40634078      -0.21684666
C        0.20270902      -0.59127375      -0.17319902
C        1.21751130      -1.03647048      -0.82929194
C        2.33907939      -0.74930016      -0.02032449
O        1.12909016      -0.07745938       1.21963870
H       -1.25953682       1.59060518      -1.07030037
H       -2.79060348       1.12793092      -0.31988134
H       -1.42052859       1.56621314       0.69180635
H       -1.71716068      -0.92816108       0.63095250
H       -1.60841482      -0.91145114      -1.12118428
H        3.01040206       0.05319181      -0.32594344
H        2.83811712      -1.57118058       0.48900737
H        1.02667380       0.87849472       1.27602558
14
Frame=7 idx=000549 GeodesicLength=0.5762248042212212 rxn_smarts="[C:1]([C:2]([C:3]#[C:4][C:5]([O:6][H:14])([H:12])[H:13])([H:10])[H:11])([H:7])([H:8])[H:9]>>[C:1]([C:2]([C:3](=[C:4]=[C:5]([H:12])[H:13])[O:6][H:14])([H:10])[H:11])([H:7])([H:8])[H:9]"
C       -1.71312942       1.05699774      -0.24118721
C       -1.27107338      -0.40487584      -0.21525638
C        0.19282070      -0.58919663      -0.15416740
C        1.21224300      -1.02250865      -0.80523799
C        2.35515293      -0.74859285      -0.02569057
O        1.15125185      -0.08156773       1.24846885
H       -1.25914620       1.58722363      -1.07992101
H       -2.79739525       1.12980528      -0.34117601
H       -1.43573929       1.57309431       0.68039409
H       -1.73407383      -0.92158922       0.63156996
H       -1.61091502      -0.91459495      -1.11956061
H        3.02406708       0.04765677      -0.35235690
H        2.86353979      -1.58162712       0.45538710
H        1.02239704       0.86977527       1.31873408
14
Frame=8 idx=000549 GeodesicLength=0.6582816569771759 rxn_smarts="[C:1]([C:2]([C:3]#[C:4][C:5]([O:6][H:14])([H:12])[H:13])([H:10])[H:11])([H:7])([H:8])[H:9]>>[C:1]([C:2]([C:3](=[C:4]=[C:5]([H:12])[H:13])[O:6][H:14])([H:10])[H:11])([H:7])([H:8])[H:9]"
C       -1.72064077       1.05873181      -0.25221400
C       -1.28018529      -0.40339523      -0.21360552
C        0.18276749      -0.58699492      -0.13428713
C        1.20712100      -1.00834669      -0.77970565
C        2.37120366      -0.74759694      -0.03129090
O        1.17435269      -0.08536446       1.27783273
H       -1.25826185       1.58362737      -1.08964821
H       -2.80385199       1.13153538      -0.36313311
H       -1.45102625       1.58006383       0.66858295
H       -1.75130104      -0.91487470       0.63201494
H       -1.61289892      -0.91784362      -1.11790351
H        3.03687508       0.04198209      -0.38021231
H        2.88815773      -1.59160558       0.42048952
H        1.01768847       0.86008167       1.36308019
14
Frame=9 idx=000549 GeodesicLength=0.7402127227139753 rxn_smarts="[C:1]([C:2]([C:3]#[C:4][C:5]([O:6][H:14])([H:12])[H:13])([H:10])[H:11])([H:7])([H:8])[H:9]>>[C:1]([C:2]([C:3](=[C:4]=[C:5]([H:12])[H:13])[O:6][H:14])([H:10])[H:11])([H:7])([H:8])[H:9]"
C       -1.72800828       1.06039335      -0.26348255
C       -1.28920549      -0.40190141      -0.21192345
C        0.17256039      -0.58459408      -0.11354887
C        1.20214770      -0.99384891      -0.75278265
C        2.38725004      -0.74640923      -0.03722720
O        1.19861676      -0.08850214       1.30752221
H       -1.25695599       1.57989360      -1.09938244
H       -2.81001888       1.13306828      -0.38570531
H       -1.46649193       1.58705979       0.65646288
H       -1.76878884      -0.90811337       0.63219008
H       -1.61424307      -0.92114845      -1.11626656
H        3.04882013       0.03591752      -0.40951979
H        2.91180100      -1.60116714       0.38469746
H        1.01251646       0.84935220       1.40896619
14
Frame=10 idx=000549 GeodesicLength=0.8220584534491255 rxn_smarts="[C:1]([C:2]([C:3]#[C:4][C:5]([O:6][H:14])([H:12])[H:13])([H:10])[H:11])([H:7])([H:8])[H:9]>>[C:1]([C:2]([C:3](=[C:4]=[C:5]([H:12])[H:13])[O:6][H:14])([H:10])[H:11])([H:7])([H:8])[H:9]"
C       -1.73518783       1.06195380      -0.27504205
C       -1.29807615      -0.40038732      -0.21020074
C        0.16224054      -0.58192401      -0.09193504
C        1.19740402      -0.97898646      -0.72427028
C        2.40321969      -0.74496804      -0.04344060
O        1.22401136      -0.09088953       1.33764616
H       -1.25515614       1.57598615      -1.10914373
H       -2.81582746       1.13432322      -0.40899094
H       -1.48213879       1.59408733       0.64397122
H       -1.78649011      -0.90128743       0.63210225
H       -1.61488007      -0.92454733      -1.11462298
H        3.05973688       0.02944748      -0.44042244
H        2.93422616      -1.61033638       0.34770578
H        1.00691788       0.83752852       1.45664338
14
Frame=11 idx=000549 GeodesicLength=0.9038351344642 rxn_smarts="[C:1]([C:2]([C:3]#[C:4][C:5]([O:6][H:14])([H:12])[H:13])([H:10])[H:11])([H:7])([H:8])[H:9]>>[C:1]([C:2]([C:3](=[C:4]=[C:5]([H:12])[H:13])[O:6][H:14])([H:10])[H:11])([H:7])([H:8])[H:9]"
C       -1.74223245       1.06338171      -0.28684776
C       -1.30672906      -0.39884641      -0.20847856
C        0.15185367      -0.57883607      -0.06947816
C        1.19294729      -0.96358178      -0.69416230
C        2.41910934      -0.74335463      -0.04992847
O        1.25064166      -0.09219481       1.36811775
H       -1.25295423       1.57197509      -1.11883618
H       -2.82132773       1.13517599      -0.43295903
H       -1.49809508       1.60108127       0.63117998
H       -1.80430619      -0.89449147       0.63165335
H       -1.61467371      -0.92800692      -1.11303643
H        3.06966803       0.02230554      -0.47292781
H        2.95514664      -1.61929020       0.30964332
H        1.00095182       0.82468269       1.50606030
14
Frame=12 idx=000549 GeodesicLength=0.9855130102660745 rxn_smarts="[C:1]([C:2]([C:3]#[C:4][C:5]([O:6][H:14])([H:12])[H:13])([H:10])[H:11])([H:7])([H:8])[H:9]>>[C:1]([C:2]([C:3](=[C:4]=[C:5]([H:12])[H:13])[O:6][H:14])([H:10])[H:11])([H:7])([H:8])[H:9]"
C       -1.74913682       1.06465760      -0.29888974
C       -1.31509449      -0.39728052      -0.20677607
C        0.14144050      -0.57525348      -0.04616126
C        1.18883143      -0.94754978      -0.66238874
C        2.43487703      -0.74159041      -0.05673084
O        1.27862935      -0.09213280       1.39887109
H       -1.25032416       1.56790901      -1.12839201
H       -2.82648823       1.13554789      -0.45765568
H       -1.51444157       1.60799435       0.61812354
H       -1.82217550      -0.88779208       0.63077621
H       -1.61348969      -0.93151016      -1.11153707
H        3.07845819       0.01433685      -0.50713843
H        2.97428594      -1.62805420       0.27057508
H        0.99462802       0.81071775       1.55732390
14
Frame=13 idx=000549 GeodesicLength=1.067097154619357 rxn_smarts="[C:1]([C:2]([C:3]#[C:4][C:5]([O:6][H:14])([H:12])[H:13])([H:10])[H:11])([H:7])([H:8])[H:9]>>[C:1]([C:2]([C:3](=[C:4]=[C:5]([H:12])[H:13])[O:6][H:14])([H:10])[H:11])([H:7])([H:8])[H:9]"
C       -1.75603661       1.06572407      -0.31106203
C       -1.32306783      -0.39566847      -0.20518406
C        0.13109353      -0.57088764      -0.02209161
C        1.18515813      -0.93052391      -0.62900383
C        2.45053162      -0.73985079      -0.06381038
O        1.30808439      -0.09019041       1.42976987
H       -1.24748468       1.56393879      -1.13761028
H       -2.83145010       1.13520778      -0.48297585
H       -1.53142725       1.61467930       0.60497235
H       -1.83991320      -0.88138344       0.62928194
H       -1.61110822      -0.93496603      -1.11027802
H        3.08628413       0.00506736      -0.54293314
H        2.99118477      -1.63702531       0.23075051
H        0.98815132       0.79587869       1.61017452
14
Frame=14 idx=000549 GeodesicLength=1.1485831817385863 rxn_smarts="[C:1]([C:2]([C:3]#[C:4][C:5]([O:6][H:14])([H:12])[H:13])([H:10])[H:11])([H:7])([H:8])[H:9]>>[C:1]([C:2]([C:3](=[C:4]=[C:5]([H:12])[H:13])[O:6][H:14])([H:10])[H:11])([H:7])([H:8])[H:9]"
C       -1.76293921       1.06656243      -0.32334244
C       -1.33056519      -0.39401080      -0.20374374
C        0.12086161      -0.56564846       0.00274515
C        1.18199413      -0.91238098      -0.59393757
C        2.46602262      -0.73817916      -0.07122972
O        1.33915777      -0.08589202       1.46069284
H       -1.24442627       1.56015700      -1.14638940
H       -2.83618561       1.13406607      -0.50897133
H       -1.54918392       1.62106284       0.59179016
H       -1.85744130      -0.87536960       0.62705929
H       -1.60735217      -0.93832940      -1.10932458
H        3.09295167      -0.00571872      -0.58044740
H        3.00554443      -1.64627155       0.19032295
H        0.98156145       0.77995236       1.66477582
14
Frame=15 idx=000549 GeodesicLength=1.2299547704381935 rxn_smarts="[C:1]([C:2]([C:3]#[C:4][C:5]([O:6][H:14])([H:12])[H:13])([H:10])[H:11])([H:7])([H:8])[H:9]>>[C:1]([C:2]([C:3](=[C:4]=[C:5]([H:12])[H:13])[O:6][H:14])([H:10])[H:11])([H:7])([H:8])[H:9]"
C       -1.76993030       1.06712520      -0.33565136
C       -1.33746861      -0.39229531      -0.20254389
C        0.11082337      -0.55931218       0.02826952
C        1.17942169      -0.89279865      -0.55721428
C        2.48130176      -0.73671829      -0.07900494
O        1.37198459      -0.07860441       1.49145581
H       -1.24129973       1.55671076      -1.15455086
H       -2.84075699       1.13193465      -0.53558901
H       -1.56792368       1.62700352       0.57871543
H       -1.87457800      -0.86993316       0.62391885
H       -1.60198617      -0.94150373      -1.10881745
H        3.09845088      -0.01841115      -0.61962389
H        3.01691237      -1.65607821       0.14955821
H        0.97504880       0.76288094       1.72107786
14
Frame=16 idx=000549 GeodesicLength=1.311196171513597 rxn_smarts="[C:1]([C:2]([C:3]#[C:4][C:5]([O:6][H:14])([H:12])[H:13])([H:10])[H:11])([H:7])([H:8])[H:9]>>[C:1]([C:2]([C:3](=[C:4]=[C:5]([H:12])[H:13])[O:6][H:14])([H:10])[H:11])([H:7])([H:8])[H:9]"
C       -1.77697796       1.06740922      -0.34799865
C       -1.34367708      -0.39053030      -0.20161083
C        0.10102226      -0.55183705       0.05451731
C        1.17750984      -0.87164006      -0.51877954
C        2.49627888      -0.73548016      -0.08724222
O        1.40676211      -0.06769752       1.52186067
H       -1.23805303       1.55367847      -1.16205018
H       -2.84509255       1.12877084      -0.56290470
H       -1.58772781       1.63245700       0.56576445
H       -1.89123025      -0.86516373       0.61978590
H       -1.59480248      -0.94446048      -1.10879995
H        3.10243318      -0.03319962      -0.66065447
H        3.02499696      -1.66645036       0.10864606
H        0.96855793       0.74414374       1.77946615
