17
Frame=0 idx=007035 GeodesicLength=0.0 rxn_smarts="[C:1]([C@:2]12[C:3]([H:11])([H:12])[C:4]([H:13])([H:14])[C@@:5]1([H:15])[C:6]([H:16])([H:17])[O:7]2)([H:8])([H:9])[H:10]>>[C:1]([C@@:2]1([H:15])[C:3]([H:11])([H:12])[C:4]([H:13])([H:14])[C:5][C:6]([H:16])([H:17])[O:7]1)([H:8])([H:9])[H:10]"
C        1.99354047       0.42182941      -0.51346525
C        0.57549222       0.16701827      -0.09232188
C        0.14241869      -1.26185801       0.18475084
C       -1.36918606      -1.07428608       0.03160662
C       -1.44092973       0.32473297      -0.59710004
C       -1.17759778       1.34359804       0.50362137
O        0.16794707       1.06947115       0.90249761
H        2.63748388       0.21635830       0.34706762
H        2.28901895      -0.23490079      -1.33126751
H        2.13797558       1.46096984      -0.80602219
H        0.53542369      -1.92632485      -0.58766885
H        0.50232080      -1.61537935       1.15435388
H       -1.88955567      -1.07782187       0.99446195
H       -1.83120447      -1.83678156      -0.59507139
H       -0.16230917       0.42539115      -1.08876830
H       -1.88378651       1.21625232       1.33233385
H       -1.22705200       2.38173105       0.16099169
17
Frame=1 idx=007035 GeodesicLength=0.06103849331191136 rxn_smarts="[C:1]([C@:2]12[C:3]([H:11])([H:12])[C:4]([H:13])([H:14])[C@@:5]1([H:15])[C:6]([H:16])([H:17])[O:7]2)([H:8])([H:9])[H:10]>>[C:1]([C@@:2]1([H:15])[C:3]([H:11])([H:12])[C:4]([H:13])([H:14])[C:5][C:6]([H:16])([H:17])[O:7]1)([H:8])([H:9])[H:10]"
C        1.99293563       0.41921104      -0.51544329
C        0.57218365       0.16960073      -0.09876762
C        0.14321556      -1.25921100       0.19044309
C       -1.36861586      -1.07733796       0.03030111
C       -1.44544923       0.32539995      -0.58267931
C       -1.17626658       1.34452627       0.51240345
O        0.17239998       1.07314699       0.90110807
H        2.63655653       0.21286685       0.34496721
H        2.28781310      -0.23872407      -1.33265451
H        2.14085737       1.45757359      -0.80937550
H        0.54182021      -1.93257248      -0.57129084
H        0.49725566      -1.60079346       1.16630349
H       -1.90017004      -1.10187593       0.98633999
H       -1.82050120      -1.82780031      -0.61877291
H       -0.16820730       0.43225574      -1.10870971
H       -1.87461761       1.22485350       1.34840906
H       -1.23120986       2.37888056       0.15741822
17
Frame=2 idx=007035 GeodesicLength=0.12208013178383023 rxn_smarts="[C:1]([C@:2]12[C:3]([H:11])([H:12])[C:4]([H:13])([H:14])[C@@:5]1([H:15])[C:6]([H:16])([H:17])[O:7]2)([H:8])([H:9])[H:10]>>[C:1]([C@@:2]1([H:15])[C:3]([H:11])([H:12])[C:4]([H:13])([H:14])[C:5][C:6]([H:16])([H:17])[O:7]1)([H:8])([H:9])[H:10]"
C        1.99220602       0.41652735      -0.51753292
C        0.56886711       0.17210690      -0.10504412
C        0.14399412      -1.25654049       0.19639601
C       -1.36799939      -1.08041242       0.02882073
C       -1.44968956       0.32601922      -0.56816096
C       -1.17480429       1.34545352       0.52126419
O        0.17691803       1.07684505       0.89978330
H        2.63565974       0.20938172       0.34265681
H        2.28631919      -0.24265379      -1.33417637
H        2.14352246       1.45408093      -0.81294821
H        0.54831219      -1.93875432      -0.55433403
H        0.49188642      -1.58602341       1.17844614
H       -1.91082551      -1.12638274       0.97732933
H       -1.80931309      -1.81829900      -0.64244344
H       -0.17437664       0.43917433      -1.12859828
H       -1.86525119       1.23357573       1.36442756
H       -1.23542562       2.37590141       0.15411427
17
Frame=3 idx=007035 GeodesicLength=0.18312392990308585 rxn_smarts="[C:1]([C@:2]12[C:3]([H:11])([H:12])[C:4]([H:13])([H:14])[C@@:5]1([H:15])[C:6]([H:16])([H:17])[O:7]2)([H:8])([H:9])[H:10]>>[C:1]([C@@:2]1([H:15])[C:3]([H:11])([H:12])[C:4]([H:13])([H:14])[C:5][C:6]([H:16])([H:17])[O:7]1)([H:8])([H:9])[H:10]"
C        1.99135351       0.41377637      -0.51972593
C        0.56554218       0.17453486      -0.11114536
C        0.14475439      -1.25384867       0.20260182
C       -1.36733250      -1.08351098       0.02717507
C       -1.45366414       0.32657893      -0.55353873
C       -1.17321526       1.34638042       0.53019679
O        0.18149573       1.08056782       0.89852089
H        2.63479091       0.20589687       0.34014676
H        2.28454049      -0.24669124      -1.33582427
H        2.14597526       1.45049048      -0.81672965
H        0.55488394      -1.94485473      -0.53681846
H        0.48621733      -1.57108463       1.19075857
H       -1.92148418      -1.15133734       0.96741223
H       -1.79764300      -1.80827983      -0.66603891
H       -0.18082597       0.44615445      -1.14843604
H       -1.85569123       1.24243451       1.38038279
H       -1.23969744       2.37279273       0.15106242
17
Frame=4 idx=007035 GeodesicLength=0.24417017066022917 rxn_smarts="[C:1]([C@:2]12[C:3]([H:11])([H:12])[C:4]([H:13])([H:14])[C@@:5]1([H:15])[C:6]([H:16])([H:17])[O:7]2)([H:8])([H:9])[H:10]>>[C:1]([C@@:2]1([H:15])[C:3]([H:11])([H:12])[C:4]([H:13])([H:14])[C:5][C:6]([H:16])([H:17])[O:7]1)([H:8])([H:9])[H:10]"
C        1.99038003       0.41095558      -0.52201481
C        0.56220851       0.17688260      -0.11706564
C        0.14549614      -1.25113829       0.20905240
C       -1.36661067      -1.08663568       0.02537384
C       -1.45738596       0.32706631      -0.53880567
C       -1.17150389       1.34730714       0.53919471
O        0.18612772       1.08431710       0.89731890
H        2.63394769       0.20240568       0.33744638
H        2.28247957      -0.25083837      -1.33759024
H        2.14822015       1.44680025      -0.82071012
H        0.56151885      -1.95085751      -0.51876174
H        0.48025066      -1.55599093       1.20322002
H       -1.93210649      -1.17673354       0.95656954
H       -1.78549138      -1.79774292      -0.68951719
H       -0.18756492       0.45320503      -1.16822519
H       -1.84594173       1.25144468       1.39626856
H       -1.24402428       2.36955288       0.14824625
17
Frame=5 idx=007035 GeodesicLength=0.30522158815257094 rxn_smarts="[C:1]([C@:2]12[C:3]([H:11])([H:12])[C:4]([H:13])([H:14])[C@@:5]1([H:15])[C:6]([H:16])([H:17])[O:7]2)([H:8])([H:9])[H:10]>>[C:1]([C@@:2]1([H:15])[C:3]([H:11])([H:12])[C:4]([H:13])([H:14])[C:5][C:6]([H:16])([H:17])[O:7]1)([H:8])([H:9])[H:10]"
C        1.98928725       0.40806225      -0.52439167
C        0.55886597       0.17914820      -0.12279913
C        0.14621917      -1.24841226       0.21573976
C       -1.36582810      -1.08978859       0.02342782
C       -1.46086784       0.32746784      -0.52395441
C       -1.16967498       1.34823393       0.54825066
O        0.19080820       1.08809412       0.89617593
H        2.63312732       0.19890106       0.33456571
H        2.28013940      -0.25509709      -1.33946529
H        2.15026101       1.44300783      -0.82487896
H        0.56819843      -1.95674524      -0.50018364
H        0.47398982      -1.54075799       1.21580743
H       -1.94264958      -1.20256378       0.94478245
H       -1.77286018      -1.78668837      -0.71283358
H       -0.19460337       0.46033605      -1.18796871
H       -1.83600701       1.26062245       1.41207708
H       -1.24840550       2.36617960       0.14564852
17
Frame=6 idx=007035 GeodesicLength=0.3662759925120273 rxn_smarts="[C:1]([C@:2]12[C:3]([H:11])([H:12])[C:4]([H:13])([H:14])[C@@:5]1([H:15])[C:6]([H:16])([H:17])[O:7]2)([H:8])([H:9])[H:10]>>[C:1]([C@@:2]1([H:15])[C:3]([H:11])([H:12])[C:4]([H:13])([H:14])[C:5][C:6]([H:16])([H:17])[O:7]1)([H:8])([H:9])[H:10]"
C        1.98807698       0.40509593      -0.52684711
C        0.55551450       0.18132951      -0.12833983
C        0.14692382      -1.24567498       0.22265473
C       -1.36498148      -1.09297155       0.02134729
C       -1.46412054       0.32777161      -0.50897881
C       -1.16773240       1.34916190       0.55735745
O        0.19553075       1.09189760       0.89509271
H        2.63232690       0.19537829       0.33151623
H        2.27752363      -0.25946571      -1.34144052
H        2.15210053       1.43911399      -0.82922321
H        0.57490779      -1.96250584      -0.48111092
H        0.46744190      -1.52540603       1.22849705
H       -1.95306984      -1.22881689       0.93203266
H       -1.75976233      -1.77512088      -0.73593574
H       -0.20195051       0.46755512      -1.20766893
H       -1.82589315       1.26998766       1.42779722
H       -1.25283656       2.36267029       0.14324973
17
Frame=7 idx=007035 GeodesicLength=0.42733831009301176 rxn_smarts="[C:1]([C@:2]12[C:3]([H:11])([H:12])[C:4]([H:13])([H:14])[C@@:5]1([H:15])[C:6]([H:16])([H:17])[O:7]2)([H:8])([H:9])[H:10]>>[C:1]([C@@:2]1([H:15])[C:3]([H:11])([H:12])[C:4]([H:13])([H:14])[C:5][C:6]([H:16])([H:17])[O:7]1)([H:8])([H:9])[H:10]"
C        1.98675077       0.40205495      -0.52937161
C        0.55215418       0.18342491      -0.13368175
C        0.14760977      -1.24293009       0.22978820
C       -1.36406527      -1.09618655       0.01914509
C       -1.46715594       0.32796518      -0.49387130
C       -1.16568056       1.35009260       0.56650744
O        0.20028908       1.09572671       0.89407015
H        2.63154304       0.19183126       0.32830889
H        2.27463554      -0.26394414      -1.34350597
H        2.15374165       1.43511782      -0.83372993
H        0.58162939      -1.96812476      -0.46156938
H        0.46061495      -1.50995491       1.24126450
H       -1.96332084      -1.25548084       0.91829901
H       -1.74621006      -1.76304800      -0.75877216
H       -0.20961545       0.47487284      -1.22733051
H       -1.81560601       1.27956029       1.44341789
H       -1.25731426       2.35902275       0.14103145
17
Frame=8 idx=007035 GeodesicLength=0.4884047847009446 rxn_smarts="[C:1]([C@:2]12[C:3]([H:11])([H:12])[C:4]([H:13])([H:14])[C@@:5]1([H:15])[C:6]([H:16])([H:17])[O:7]2)([H:8])([H:9])[H:10]>>[C:1]([C@@:2]1([H:15])[C:3]([H:11])([H:12])[C:4]([H:13])([H:14])[C:5][C:6]([H:16])([H:17])[O:7]1)([H:8])([H:9])[H:10]"
C        1.98531094       0.39894008      -0.53195566
C        0.54878534       0.18543237      -0.13881882
C        0.14827865      -1.24018360       0.23713055
C       -1.36307755      -1.09943496       0.01683267
C       -1.46998255       0.32803661      -0.47862524
C       -1.16352287       1.35102716       0.57569260
O        0.20507689       1.09957796       0.89311112
H        2.63077400       0.18825573       0.32495544
H        2.27147927      -0.26852839      -1.34565282
H        2.15518644       1.43102194      -0.83838525
H        0.58834827      -1.97359118      -0.44158736
H        0.45351807      -1.49442580       1.25408699
H       -1.97335570      -1.28254129       0.90356681
H       -1.73222661      -1.75047799      -0.78129401
H       -0.21760745       0.48229569      -1.24695533
H       -1.80515217       1.28936265       1.45892511
H       -1.26183296       2.35523305       0.13897322
17
Frame=9 idx=007035 GeodesicLength=0.5494816285308725 rxn_smarts="[C:1]([C@:2]12[C:3]([H:11])([H:12])[C:4]([H:13])([H:14])[C@@:5]1([H:15])[C:6]([H:16])([H:17])[O:7]2)([H:8])([H:9])[H:10]>>[C:1]([C@@:2]1([H:15])[C:3]([H:11])([H:12])[C:4]([H:13])([H:14])[C:5][C:6]([H:16])([H:17])[O:7]1)([H:8])([H:9])[H:10]"
C        1.98375696       0.39574762      -0.53458739
C        0.54540902       0.18735259      -0.14374075
C        0.14892343      -1.23743757       0.24467472
C       -1.36201198      -1.10271522       0.01441286
C       -1.47261576       0.32797653      -0.46323164
C       -1.16126597       1.35197125       0.58490656
O        0.20988630       1.10345136       0.89221984
H        2.63001443       0.18464151       0.32146838
H        2.26805270      -0.27322084      -1.34786935
H        2.15643635       1.42682175      -0.84317139
H        0.59504168      -1.97889114      -0.42119755
H        0.44614731      -1.47884355       1.26694113
H       -1.98307963      -1.30996513       0.88784284
H       -1.71782525      -1.73745074      -0.80347980
H       -0.22594179       0.48984186      -1.26654812
H       -1.79454029       1.29941905       1.47430746
H       -1.26638750       2.35130066       0.13705218
17
Frame=10 idx=007035 GeodesicLength=0.6105648114375477 rxn_smarts="[C:1]([C@:2]12[C:3]([H:11])([H:12])[C:4]([H:13])([H:14])[C@@:5]1([H:15])[C:6]([H:16])([H:17])[O:7]2)([H:8])([H:9])[H:10]>>[C:1]([C@@:2]1([H:15])[C:3]([H:11])([H:12])[C:4]([H:13])([H:14])[C:5][C:6]([H:16])([H:17])[O:7]1)([H:8])([H:9])[H:10]"
C        1.98209240       0.39248059      -0.53725975
C        0.54202476       0.18918070      -0.14844545
C        0.14955150      -1.23470129       0.25241025
C       -1.36086633      -1.10603200       0.01190720
C       -1.47505897       0.32776997      -0.44768347
C       -1.15891183       1.35292201       0.59414029
O        0.21471179       1.10733883       0.89139946
H        2.62926433       0.18098893       0.31785747
H        2.26436449      -0.27801386      -1.35014971
H        2.15749231       1.42252384      -0.84807900
H        0.60170397      -1.98402113      -0.40042488
H        0.43852740      -1.46322938       1.27980797
H       -1.99248704      -1.33774591       0.87109668
H       -1.70303340      -1.72394013      -0.82526378
H       -0.23462405       0.49751050      -1.28611119
H       -1.78377747       1.30975111       1.48954716
H       -1.27097385       2.34721722       0.13525076
17
Frame=11 idx=007035 GeodesicLength=0.6716566048582587 rxn_smarts="[C:1]([C@:2]12[C:3]([H:11])([H:12])[C:4]([H:13])([H:14])[C@@:5]1([H:15])[C:6]([H:16])([H:17])[O:7]2)([H:8])([H:9])[H:10]>>[C:1]([C@@:2]1([H:15])[C:3]([H:11])([H:12])[C:4]([H:13])([H:14])[C:5][C:6]([H:16])([H:17])[O:7]1)([H:8])([H:9])[H:10]"
C        1.98031856       0.38913848      -0.53996363
C        0.53863326       0.19091433      -0.15292645
C        0.15016364      -1.23198131       0.26032933
C       -1.35963609      -1.10938673       0.00932848
C       -1.47732058       0.32740437      -0.43197141
C       -1.15646493       1.35388071       0.60338656
O        0.21954681       1.11123526       0.89065487
H        2.62852071       0.17729393       0.31413279
H        2.26041801      -0.28290524      -1.35248547
H        2.15835407       1.41812856      -0.85309503
H        0.60832232      -1.98897251      -0.37929745
H        0.43066936      -1.44760641       1.29266894
H       -2.00152544      -1.36585799       0.85332257
H       -1.68787457      -1.70995223      -0.84661373
H       -0.24366517       0.50530807      -1.30564848
H       -1.77287262       1.32038173       1.50462968
H       -1.27558732       2.34297701       0.13354843
17
Frame=12 idx=007035 GeodesicLength=0.7327570094617192 rxn_smarts="[C:1]([C@:2]12[C:3]([H:11])([H:12])[C:4]([H:13])([H:14])[C@@:5]1([H:15])[C:6]([H:16])([H:17])[O:7]2)([H:8])([H:9])[H:10]>>[C:1]([C@@:2]1([H:15])[C:3]([H:11])([H:12])[C:4]([H:13])([H:14])[C:5][C:6]([H:16])([H:17])[O:7]1)([H:8])([H:9])[H:10]"
C        1.97843697       0.38572267      -0.54268905
C        0.53523482       0.19255102      -0.15717787
C        0.15076115      -1.22928560       0.26842228
C       -1.35832000      -1.11278194       0.00668748
C       -1.47940818       0.32686952      -0.41608772
C       -1.15392938       1.35484863       0.61263813
O        0.22438458       1.11513294       0.88999267
H        2.62778117       0.17355301       0.31030599
H        2.25621693      -0.28788916      -1.35486861
H        2.15902123       1.41363952      -0.85820428
H        0.61488722      -1.99374245      -0.35784794
H        0.42258792      -1.43200025       1.30550509
H       -2.01014572      -1.39427011       0.83452006
H       -1.67237767      -1.69549812      -0.86749271
H       -0.25307476       0.51324045      -1.32516496
H       -1.76183554       1.33133597       1.51953635
H       -1.28022073       2.33857391       0.13192508
17
Frame=13 idx=007035 GeodesicLength=0.793867239826757 rxn_smarts="[C:1]([C@:2]12[C:3]([H:11])([H:12])[C:4]([H:13])([H:14])[C@@:5]1([H:15])[C:6]([H:16])([H:17])[O:7]2)([H:8])([H:9])[H:10]>>[C:1]([C@@:2]1([H:15])[C:3]([H:11])([H:12])[C:4]([H:13])([H:14])[C:5][C:6]([H:16])([H:17])[O:7]1)([H:8])([H:9])[H:10]"
C        1.97644888       0.38223375      -0.54542614
C        0.53182996       0.19408862      -0.16119368
C        0.15134514      -1.22662132       0.27668060
C       -1.35691490      -1.11621903       0.00399688
C       -1.48132896       0.32615482      -0.40002339
C       -1.15130969       1.35582729       0.62188719
O        0.22921837       1.11902451       0.88941976
H        2.62704316       0.16976210       0.30638819
H        2.25176495      -0.29296107      -1.35729011
H        2.15949338       1.40905916      -0.86339204
H        0.62138825      -1.99832609      -0.33610775
H        0.41429811      -1.41643703       1.31829763
H       -2.01829477      -1.42295105       0.81468878
H       -1.65657486      -1.68058895      -0.88786897
H       -0.26286299       0.52131397      -1.34466582
H       -1.75067594       1.34263879       1.53424882
H       -1.28486810       2.33400152       0.13036005
17
Frame=14 idx=007035 GeodesicLength=0.8549876393174546 rxn_smarts="[C:1]([C@:2]12[C:3]([H:11])([H:12])[C:4]([H:13])([H:14])[C@@:5]1([H:15])[C:6]([H:16])([H:17])[O:7]2)([H:8])([H:9])[H:10]>>[C:1]([C@@:2]1([H:15])[C:3]([H:11])([H:12])[C:4]([H:13])([H:14])[C:5][C:6]([H:16])([H:17])[O:7]1)([H:8])([H:9])[H:10]"
C        1.97435627       0.37867337      -0.54816473
C        0.52841981       0.19552488      -0.16496764
C        0.15191695      -1.22399725       0.28509417
C       -1.35541896      -1.11969903       0.00126868
C       -1.48308856       0.32524997      -0.38377055
C       -1.14860970       1.35681816       0.63112634
O        0.23404193       1.12290092       0.88894471
H        2.62630494       0.16591755       0.30239065
H        2.24706637      -0.29811413      -1.35974216
H        2.15976993       1.40439174      -0.86864221
H        0.62781444      -2.00272143      -0.31411159
H        0.40581631      -1.40094387       1.33102846
H       -2.02592238      -1.45186477       0.79382763
H       -1.64049951      -1.66523883      -0.90770347
H       -0.27304021       0.52953501      -1.36415715
H       -1.73940552       1.35431486       1.54874652
H       -1.28952211       2.32925286       0.12883234
17
Frame=15 idx=007035 GeodesicLength=0.9161196548988256 rxn_smarts="[C:1]([C@:2]12[C:3]([H:11])([H:12])[C:4]([H:13])([H:14])[C@@:5]1([H:15])[C:6]([H:16])([H:17])[O:7]2)([H:8])([H:9])[H:10]>>[C:1]([C@@:2]1([H:15])[C:3]([H:11])([H:12])[C:4]([H:13])([H:14])[C:5][C:6]([H:16])([H:17])[O:7]1)([H:8])([H:9])[H:10]"
C        1.97216080       0.37504236      -0.55089550
C        0.52500495       0.19685752      -0.16849378
C        0.15247710      -1.22142122       0.29365500
C       -1.35383007      -1.12322257      -0.00148386
C       -1.48469281       0.32414509      -0.36732034
C       -1.14583417       1.35782236       0.64034881
O        0.23884894       1.12675350       0.88857583
H        2.62556498       0.16201533       0.29832343
H        2.24212468      -0.30334305      -1.36221713
H        2.15985004       1.39964020      -0.87394070
H        0.63415539      -2.00692755      -0.29189069
H        0.39715883      -1.38554707       1.34368133
H       -2.03297661      -1.48097520       0.77193287
H       -1.62418286      -1.64945758      -0.92696178
H       -0.28361683       0.53790913      -1.38364549
H       -1.72803480       1.36638834       1.56300899
H       -1.29417757       2.32432040       0.12732301
17
Frame=16 idx=007035 GeodesicLength=0.9772637412516121 rxn_smarts="[C:1]([C@:2]12[C:3]([H:11])([H:12])[C:4]([H:13])([H:14])[C@@:5]1([H:15])[C:6]([H:16])([H:17])[O:7]2)([H:8])([H:9])[H:10]>>[C:1]([C@@:2]1([H:15])[C:3]([H:11])([H:12])[C:4]([H:13])([H:14])[C:5][C:6]([H:16])([H:17])[O:7]1)([H:8])([H:9])[H:10]"
C        1.96986441       0.37134320      -0.55360916
C        0.52158684       0.19808475      -0.17176644
C        0.15302733      -1.21890206       0.30235481
C       -1.35214789      -1.12678974      -0.00425100
C       -1.48614588       0.32283281      -0.35066482
C       -1.14298676       1.35884134       0.64954831
O        0.24363426       1.13057263       0.88832279
H        2.62482220       0.15805390       0.29419716
H        2.23694427      -0.30864063      -1.36470774
H        2.15973256       1.39480965      -0.87927315
H        0.64040540      -2.01094738      -0.26947627
H        0.38834240      -1.37027395       1.35624227
H       -2.03940923      -1.51024360       0.74900638
H       -1.60766595      -1.63326141      -0.94561270
H       -0.29460271       0.54644085      -1.40313883
H       -1.71657431       1.37888296       1.57701453
H       -1.29882694       2.31919666       0.12581385
