16
Frame=0 idx=011697 GeodesicLength=0.0 rxn_smarts="[C:1]1([H:8])([H:9])[C@@:2]2([H:10])[N:3]1[C:4]([H:11])([H:12])[C:5]21[C:6]([H:13])([H:14])[C:7]1([H:15])[H:16]>>[C-:1]([N+:3]1=[C:2]([H:10])[C:5]2([C:4]1([H:11])[H:12])[C:6]([H:13])([H:14])[C:7]2([H:15])[H:16])([H:8])[H:9]"
C        2.03993904       1.38877555      -0.02875103
C        0.22049590       0.75826876      -0.88465880
N        1.46432729       0.27724342      -0.65684769
C        0.93274599      -0.93030604       0.04560418
C       -0.46922959      -0.29651824      -0.11434222
C       -1.52466109      -0.17751127       0.95096862
C       -1.80949038      -0.92595504      -0.31529961
H        1.47880423       1.91641680       0.73020436
H        3.00983216       1.73679409      -0.35690194
H       -0.04101419       1.56605060      -1.54809278
H        1.30813648      -1.02726199       1.06245523
H        1.08897472      -1.84656083      -0.52576826
H       -1.98398537       0.79267735       1.08624640
H       -1.38525185      -0.74541086       1.86181281
H       -1.85380424      -2.00716961      -0.26432912
H       -2.47581917      -0.47953275      -1.04230008
16
Frame=1 idx=011697 GeodesicLength=0.03268803486799098 rxn_smarts="[C:1]1([H:8])([H:9])[C@@:2]2([H:10])[N:3]1[C:4]([H:11])([H:12])[C:5]21[C:6]([H:13])([H:14])[C:7]1([H:15])[H:16]>>[C-:1]([N+:3]1=[C:2]([H:10])[C:5]2([C:4]1([H:11])[H:12])[C:6]([H:13])([H:14])[C:7]2([H:15])[H:16])([H:8])[H:9]"
C        2.03479794       1.38699082      -0.03888597
C        0.21949926       0.76916667      -0.87397984
N        1.46436522       0.27401063      -0.66484743
C        0.93211691      -0.92448234       0.05029615
C       -0.46876143      -0.29092764      -0.10801170
C       -1.52899434      -0.18056019       0.95220299
C       -1.80471474      -0.92587578      -0.31872585
H        1.49598351       1.91928834       0.73261711
H        3.01065028       1.71967227      -0.36502689
H       -0.04960055       1.56732647      -1.54623459
H        1.31045290      -1.01922208       1.06642547
H        1.08725609      -1.84323074      -0.51722369
H       -1.99455287       0.78647849       1.08911414
H       -1.39287755      -0.75206623       1.86136646
H       -1.84593607      -2.00742770      -0.27227173
H       -2.46968455      -0.47914099      -1.04681463
16
Frame=2 idx=011697 GeodesicLength=0.06542515498421626 rxn_smarts="[C:1]1([H:8])([H:9])[C@@:2]2([H:10])[N:3]1[C:4]([H:11])([H:12])[C:5]21[C:6]([H:13])([H:14])[C:7]1([H:15])[H:16]>>[C-:1]([N+:3]1=[C:2]([H:10])[C:5]2([C:4]1([H:11])[H:12])[C:6]([H:13])([H:14])[C:7]2([H:15])[H:16])([H:8])[H:9]"
C        2.02974182       1.38512015      -0.04894024
C        0.21852630       0.78003839      -0.86319464
N        1.46408464       0.27084130      -0.67271866
C        0.93147879      -0.91859097       0.05507354
C       -0.46835259      -0.28534935      -0.10162575
C       -1.53340324      -0.18368848       0.95337378
C       -1.79989610      -0.92577570      -0.32220702
H        1.51378120       1.92228570       0.73448085
H        3.01124141       1.70239481      -0.37329367
H       -0.05835654       1.56864084      -1.54381585
H        1.31273105      -1.01106087       1.07048347
H        1.08561315      -1.83982897      -0.50853699
H       -2.00519458       0.78015615       1.09185925
H       -1.40058602      -0.75884111       1.86080240
H       -1.83796852      -2.00764063      -0.28031698
H       -2.46344074      -0.47870127      -1.05142348
16
Frame=3 idx=011697 GeodesicLength=0.0981765957112371 rxn_smarts="[C:1]1([H:8])([H:9])[C@@:2]2([H:10])[N:3]1[C:4]([H:11])([H:12])[C:5]21[C:6]([H:13])([H:14])[C:7]1([H:15])[H:16]>>[C-:1]([N+:3]1=[C:2]([H:10])[C:5]2([C:4]1([H:11])[H:12])[C:6]([H:13])([H:14])[C:7]2([H:15])[H:16])([H:8])[H:9]"
C        2.02470732       1.38315087      -0.05880258
C        0.21761700       0.79080893      -0.85239405
N        1.46353410       0.26770964      -0.68043386
C        0.93084201      -0.91269330       0.05988260
C       -0.46797994      -0.27980922      -0.09522079
C       -1.53782492      -0.18683771       0.95447557
C       -1.79503983      -0.92563865      -0.32570789
H        1.53200093       1.92535025       0.73583418
H        3.01148334       1.68512759      -0.38161384
H       -0.06719860       1.56995562      -1.54091423
H        1.31497368      -1.00289349       1.07457375
H        1.08403915      -1.83639352      -0.49980484
H       -2.01580292       0.77379464       1.09445191
H       -1.40830152      -0.76564120       1.86013542
H       -1.82994366      -2.00778845      -0.28837935
H       -2.45710616      -0.47820200      -1.05608201
16
Frame=4 idx=011697 GeodesicLength=0.13089615835920632 rxn_smarts="[C:1]1([H:8])([H:9])[C@@:2]2([H:10])[N:3]1[C:4]([H:11])([H:12])[C:5]21[C:6]([H:13])([H:14])[C:7]1([H:15])[H:16]>>[C-:1]([N+:3]1=[C:2]([H:10])[C:5]2([C:4]1([H:11])[H:12])[C:6]([H:13])([H:14])[C:7]2([H:15])[H:16])([H:8])[H:9]"
C        2.01964745       1.38108648      -0.06837837
C        0.21679584       0.80141565      -0.84166459
N        1.46276724       0.26459579      -0.68797536
C        0.93022763      -0.90684347       0.06467097
C       -0.46762704      -0.27432954      -0.08883203
C       -1.54221385      -0.18995006       0.95551065
C       -1.79016402      -0.92545801      -0.32920106
H        1.55047350       1.92843159       0.73673864
H        3.01130817       1.66800635      -0.38989456
H       -0.07607163       1.57123321      -1.53762082
H        1.31720380      -0.99481747       1.07864888
H        1.08254414      -1.83296467      -0.49112541
H       -2.02630377       0.76747932       1.09687686
H       -1.41595829      -0.77237305       1.85939182
H       -1.82190613      -2.00786662      -0.29638747
H       -2.45072305      -0.47764551      -1.06075814
16
Frame=5 idx=011697 GeodesicLength=0.16363646982345886 rxn_smarts="[C:1]1([H:8])([H:9])[C@@:2]2([H:10])[N:3]1[C:4]([H:11])([H:12])[C:5]21[C:6]([H:13])([H:14])[C:7]1([H:15])[H:16]>>[C-:1]([N+:3]1=[C:2]([H:10])[C:5]2([C:4]1([H:11])[H:12])[C:6]([H:13])([H:14])[C:7]2([H:15])[H:16])([H:8])[H:9]"
C        2.01459887       1.37889477      -0.07771583
C        0.21605338       0.81188885      -0.83095231
N        1.46176711       0.26149626      -0.69534136
C        0.92959953      -0.90101738       0.06947936
C       -0.46729849      -0.26889694      -0.08242754
C       -1.54658733      -0.19307267       0.95647344
C       -1.78523882      -0.92523099      -0.33269489
H        1.56923778       1.93156660       0.73710301
H        3.01074383       1.65099461      -0.39823397
H       -0.08495412       1.57254019      -1.53384955
H        1.31937138      -0.98679051       1.08273942
H        1.08108318      -1.82951644      -0.48242360
H       -2.03672743       0.76114034       1.09913565
H       -1.42360416      -0.77911342       1.85854420
H       -1.81381479      -2.00786496      -0.30437797
H       -2.44422991      -0.47701831      -1.06545806
16
Frame=6 idx=011697 GeodesicLength=0.19632536805196366 rxn_smarts="[C:1]1([H:8])([H:9])[C@@:2]2([H:10])[N:3]1[C:4]([H:11])([H:12])[C:5]21[C:6]([H:13])([H:14])[C:7]1([H:15])[H:16]>>[C-:1]([N+:3]1=[C:2]([H:10])[C:5]2([C:4]1([H:11])[H:12])[C:6]([H:13])([H:14])[C:7]2([H:15])[H:16])([H:8])[H:9]"
C        2.00936609       1.37661015      -0.08658063
C        0.21547465       0.82207293      -0.82048390
N        1.46062596       0.25839649      -0.70248007
C        0.92899204      -0.89533953       0.07415895
C       -0.46693755      -0.26357122      -0.07611481
C       -1.55079497      -0.19604915       0.95734901
C       -1.78028637      -0.92493903      -0.33609856
H        1.58786383       1.93456744       0.73713109
H        3.00955085       1.63439383      -0.40634398
H       -0.09370670       1.57374062      -1.52986057
H        1.32149907      -0.97907391       1.08668877
H        1.07966490      -1.82611373      -0.47396390
H       -2.04680635       0.75500160       1.10115178
H       -1.43103914      -0.78559843       1.85763942
H       -1.80578077      -2.00776286      -0.31211628
H       -2.43768556      -0.47633520      -1.07007630
16
Frame=7 idx=011697 GeodesicLength=0.22893634688270698 rxn_smarts="[C:1]1([H:8])([H:9])[C@@:2]2([H:10])[N:3]1[C:4]([H:11])([H:12])[C:5]21[C:6]([H:13])([H:14])[C:7]1([H:15])[H:16]>>[C-:1]([N+:3]1=[C:2]([H:10])[C:5]2([C:4]1([H:11])[H:12])[C:6]([H:13])([H:14])[C:7]2([H:15])[H:16])([H:8])[H:9]"
C        2.00404892       1.37421848      -0.09500833
C        0.21501841       0.83199556      -0.81021841
N        1.45937767       0.25528170      -0.70940314
C        0.92841381      -0.88979813       0.07874236
C       -0.46656612      -0.25834334      -0.06986786
C       -1.55489229      -0.19891226       0.95815837
C       -1.77533004      -0.92459533      -0.33944209
H        1.60642254       1.93751712       0.73680171
H        3.00785263       1.61819596      -0.41432098
H       -0.10235264       1.57487136      -1.52562511
H        1.32361018      -0.97162036       1.09054761
H        1.07830061      -1.82276897      -0.46570814
H       -2.05664777       0.74902393       1.10297511
H       -1.43832656      -0.79188520       1.85669351
H       -1.79780177      -2.00758162      -0.31967673
H       -2.43112758      -0.47559889      -1.07464788
16
Frame=8 idx=011697 GeodesicLength=0.2615049097232627 rxn_smarts="[C:1]1([H:8])([H:9])[C@@:2]2([H:10])[N:3]1[C:4]([H:11])([H:12])[C:5]21[C:6]([H:13])([H:14])[C:7]1([H:15])[H:16]>>[C-:1]([N+:3]1=[C:2]([H:10])[C:5]2([C:4]1([H:11])[H:12])[C:6]([H:13])([H:14])[C:7]2([H:15])[H:16])([H:8])[H:9]"
C        1.99872923       1.37171434      -0.10309018
C        0.21466568       0.84172497      -0.80004925
N        1.45799561       0.25215326      -0.71612309
C        0.92785998      -0.88434552       0.08330765
C       -0.46620501      -0.25319264      -0.06363942
C       -1.55895971      -0.20172560       0.95891044
C       -1.77037096      -0.92421480      -0.34277405
H        1.62511383       1.94045277       0.73605338
H        3.00574706       1.60231461      -0.42237583
H       -0.11093616       1.57602516      -1.52102206
H        1.32570093      -0.96431977       1.09440388
H        1.07700598      -1.81946672      -0.45752858
H       -2.06638013       0.74312019       1.10464298
H       -1.44557849      -0.79808517       1.85569166
H       -1.78984829      -2.00734239      -0.32717300
H       -2.42453954      -0.47481268      -1.07923453
16
Frame=9 idx=011697 GeodesicLength=0.29408892017023874 rxn_smarts="[C:1]1([H:8])([H:9])[C@@:2]2([H:10])[N:3]1[C:4]([H:11])([H:12])[C:5]21[C:6]([H:13])([H:14])[C:7]1([H:15])[H:16]>>[C-:1]([N+:3]1=[C:2]([H:10])[C:5]2([C:4]1([H:11])[H:12])[C:6]([H:13])([H:14])[C:7]2([H:15])[H:16])([H:8])[H:9]"
C        1.99341239       1.36907706      -0.11087659
C        0.21439122       0.85128343      -0.78994084
N        1.45645320       0.24900805      -0.72263570
C        0.92728221      -0.87896332       0.08789038
C       -0.46585331      -0.24810738      -0.05740317
C       -1.56297653      -0.20453684       0.95959589
C       -1.76536289      -0.92377367      -0.34609083
H        1.64390841       1.94343879       0.73479615
H        3.00325284       1.58668216      -0.43052831
H       -0.11943954       1.57722066      -1.51603746
H        1.32770994      -0.95714180       1.09827446
H        1.07571370      -1.81618310      -0.44934886
H       -2.07597502       0.73722272       1.10616101
H       -1.45280316      -0.80429401       1.85458804
H       -1.78186642      -2.00701303      -0.33463730
H       -2.41784705      -0.47391971      -1.08380687
16
Frame=10 idx=011697 GeodesicLength=0.32665080443174443 rxn_smarts="[C:1]1([H:8])([H:9])[C@@:2]2([H:10])[N:3]1[C:4]([H:11])([H:12])[C:5]21[C:6]([H:13])([H:14])[C:7]1([H:15])[H:16]>>[C-:1]([N+:3]1=[C:2]([H:10])[C:5]2([C:4]1([H:11])[H:12])[C:6]([H:13])([H:14])[C:7]2([H:15])[H:16])([H:8])[H:9]"
C        1.98790476       1.36636066      -0.11816373
C        0.21428349       0.86054734      -0.78009652
N        1.45483167       0.24586191      -0.72890028
C        0.92672152      -0.87375029       0.09233849
C       -0.46545851      -0.24313434      -0.05126443
C       -1.56681641      -0.20719166       0.96020465
C       -1.76033454      -0.92327564      -0.34930538
H        1.66245418       1.94623857       0.73324135
H        3.00017233       1.57156008      -0.43848302
H       -0.12774605       1.57833079      -1.51091698
H        1.32966686      -0.95031898       1.10199935
H        1.07445254      -1.81296031      -0.44144011
H       -2.08521914       0.73154549       1.10745039
H       -1.45982339      -0.81023393       1.85344355
H       -1.77396994      -2.00659688      -0.34183220
H       -2.41111936      -0.47298281      -1.08827514
16
Frame=11 idx=011697 GeodesicLength=0.35911867519793994 rxn_smarts="[C:1]1([H:8])([H:9])[C@@:2]2([H:10])[N:3]1[C:4]([H:11])([H:12])[C:5]21[C:6]([H:13])([H:14])[C:7]1([H:15])[H:16]>>[C-:1]([N+:3]1=[C:2]([H:10])[C:5]2([C:4]1([H:11])[H:12])[C:6]([H:13])([H:14])[C:7]2([H:15])[H:16])([H:8])[H:9]"
C        1.98231600       1.36355684      -0.12498362
C        0.21428237       0.86953908      -0.77050561
N        1.45318507       0.24269633      -0.73494877
C        0.92619250      -0.86869840       0.09666150
C       -0.46504674      -0.23826859      -0.04520919
C       -1.57053137      -0.20971778       0.96076866
C       -1.75532452      -0.92273423      -0.35244205
H        1.68076919       1.94900910       0.73138345
H        2.99668719       1.55689932      -0.44623721
H       -0.13589637       1.57935900      -1.50568955
H        1.33161136      -0.94380786       1.10561111
H        1.07323433      -1.80981146      -0.43379692
H       -2.09420419       0.72606050       1.10858463
H       -1.46668066      -0.81595820       1.85228864
H       -1.76616612      -2.00611826      -0.34882420
H       -2.40442802      -0.47200539      -1.09266088
16
Frame=12 idx=011697 GeodesicLength=0.3915563409707619 rxn_smarts="[C:1]1([H:8])([H:9])[C@@:2]2([H:10])[N:3]1[C:4]([H:11])([H:12])[C:5]21[C:6]([H:13])([H:14])[C:7]1([H:15])[H:16]>>[C-:1]([N+:3]1=[C:2]([H:10])[C:5]2([C:4]1([H:11])[H:12])[C:6]([H:13])([H:14])[C:7]2([H:15])[H:16])([H:8])[H:9]"
C        1.97668644       1.36065841      -0.13142483
C        0.21437850       0.87831916      -0.76105598
N        1.45146158       0.23951907      -0.74078073
C        0.92566982      -0.86376285       0.10093777
C       -0.46462913      -0.23349099      -0.03919114
C       -1.57417029      -0.21217421       0.96127600
C       -1.75030440      -0.92215250      -0.35553432
H        1.69902551       1.95173273       0.72915583
H        2.99282266       1.54262595      -0.45400082
H       -0.14391485       1.58039491      -1.50022300
H        1.33350860      -0.93751788       1.10918285
H        1.07204505      -1.80671279      -0.42628453
H       -2.10300981       0.72068007       1.10956197
H       -1.47346072      -0.82156423       1.85108366
H       -1.75840562      -2.00557767      -0.35569275
H       -2.39770335      -0.47097720      -1.09700997
16
Frame=13 idx=011697 GeodesicLength=0.4239596425357856 rxn_smarts="[C:1]1([H:8])([H:9])[C@@:2]2([H:10])[N:3]1[C:4]([H:11])([H:12])[C:5]21[C:6]([H:13])([H:14])[C:7]1([H:15])[H:16]>>[C-:1]([N+:3]1=[C:2]([H:10])[C:5]2([C:4]1([H:11])[H:12])[C:6]([H:13])([H:14])[C:7]2([H:15])[H:16])([H:8])[H:9]"
C        1.97111343       1.35765436      -0.13756713
C        0.21455231       0.88694584      -0.75164449
N        1.44964659       0.23632295      -0.74641312
C        0.92516000      -0.85889944       0.10524490
C       -0.46423246      -0.22878591      -0.03316461
C       -1.57782401      -0.21462230       0.96174003
C       -1.74528909      -0.92154363      -0.35863366
H        1.71743647       1.95444752       0.72650550
H        2.98867268       1.52867869      -0.46199311
H       -0.15185001       1.58151882      -1.49440207
H        1.33536956      -0.93133862       1.11281270
H        1.07091408      -1.80365181      -0.41878226
H       -2.11177598       0.71532028       1.11042423
H       -1.48027944      -0.82715580       1.84982451
H       -1.75066573      -2.00499166      -0.36255732
H       -2.39094838      -0.46989930      -1.10139409
16
Frame=14 idx=011697 GeodesicLength=0.4564044744170642 rxn_smarts="[C:1]1([H:8])([H:9])[C@@:2]2([H:10])[N:3]1[C:4]([H:11])([H:12])[C:5]21[C:6]([H:13])([H:14])[C:7]1([H:15])[H:16]>>[C-:1]([N+:3]1=[C:2]([H:10])[C:5]2([C:4]1([H:11])[H:12])[C:6]([H:13])([H:14])[C:7]2([H:15])[H:16])([H:8])[H:9]"
C        1.96556283       1.35453050      -0.14344012
C        0.21479645       0.89543076      -0.74224806
N        1.44770452       0.23310498      -0.75183049
C        0.92462341      -0.85410401       0.10960280
C       -0.46384565      -0.22414362      -0.02711675
C       -1.58144643      -0.21708241       0.96214235
C       -1.74022795      -0.92088188      -0.36173013
H        1.73591490       1.95718457       0.72333600
H        2.98420031       1.51498312      -0.47017954
H       -0.15967759       1.58274571      -1.48821016
H        1.33714929      -0.92526536       1.11649170
H        1.06978575      -1.80062264      -0.41123823
H       -2.12044468       0.70995466       1.11115977
H       -1.48710770      -0.83278538       1.84845755
H       -1.74289324      -2.00433070      -0.36942924
H       -2.38409424      -0.46871830      -1.10576747
16
Frame=15 idx=011697 GeodesicLength=0.48885462959032333 rxn_smarts="[C:1]1([H:8])([H:9])[C@@:2]2([H:10])[N:3]1[C:4]([H:11])([H:12])[C:5]21[C:6]([H:13])([H:14])[C:7]1([H:15])[H:16]>>[C-:1]([N+:3]1=[C:2]([H:10])[C:5]2([C:4]1([H:11])[H:12])[C:6]([H:13])([H:14])[C:7]2([H:15])[H:16])([H:8])[H:9]"
C        1.95990133       1.35133647      -0.14889295
C        0.21514487       0.90369063      -0.73302673
N        1.44570911       0.22988348      -0.75701168
C        0.92408039      -0.84945187       0.11387307
C       -0.46343442      -0.21960257      -0.02113328
C       -1.58494309      -0.21943423       0.96247463
C       -1.73514516      -0.92018485      -0.36474856
H        1.75421287       1.95979109       0.71987744
H        2.97930691       1.50175945      -0.47830269
H       -0.16731930       1.58394361      -1.48187890
H        1.33885143      -0.91948398       1.12007347
H        1.06866285      -1.79765038      -0.40389318
H       -2.12884581       0.70475066       1.11170828
H       -1.49380473      -0.83822504       1.84703938
H       -1.73518385      -2.00361487      -0.37609565
H       -2.37719339      -0.46750761      -1.11006263
16
Frame=16 idx=011697 GeodesicLength=0.521225692866895 rxn_smarts="[C:1]1([H:8])([H:9])[C@@:2]2([H:10])[N:3]1[C:4]([H:11])([H:12])[C:5]21[C:6]([H:13])([H:14])[C:7]1([H:15])[H:16]>>[C-:1]([N+:3]1=[C:2]([H:10])[C:5]2([C:4]1([H:11])[H:12])[C:6]([H:13])([H:14])[C:7]2([H:15])[H:16])([H:8])[H:9]"
C        1.95421187       1.34807643      -0.15394479
C        0.21557706       0.91173519      -0.72398399
N        1.44371606       0.22665434      -0.76198924
C        0.92356390      -0.84493302       0.11806566
C       -0.46301585      -0.21515724      -0.01520305
C       -1.58836448      -0.22169888       0.96277822
C       -1.73008691      -0.91945506      -0.36771078
H        1.77232945       1.96235641       0.71611204
H        2.97412841       1.48896290      -0.48635018
H       -0.17480868       1.58510491      -1.47545762
H        1.34054041      -0.91396269       1.12359928
H        1.06758125      -1.79473723      -0.39675256
H       -2.13707239       0.69968180       1.11214431
H       -1.50041571      -0.84351732       1.84561713
H       -1.72756099      -2.00285070      -0.38262010
H       -2.37032340      -0.46625984      -1.11430435
