9
Frame=0 idx=000321 GeodesicLength=0.0 rxn_smarts="[O:1]([c:2]1[n:3][o:4][c:5]([H:8])[c:6]1[H:9])[H:7]>>[O-:1][C:2]1=[N:3][O+:4]=[C:5]([H:8])[C:6]1([H:7])[H:9]"
O        2.15586338      -0.07759324       0.00383675
C        0.94175704      -0.37733908       0.27043531
N        0.35256193      -1.54473535       0.42096654
O       -1.02803042      -1.26987967       0.22814098
C       -1.22460158      -0.03353279      -0.08700573
C       -0.05036704       0.69319788      -0.05795233
H        1.09052275       0.61251539      -0.75177985
H       -2.25522794       0.25906509      -0.24093595
H        0.01752186       1.73830173       0.21429424
9
Frame=1 idx=000321 GeodesicLength=0.06638713387078095 rxn_smarts="[O:1]([c:2]1[n:3][o:4][c:5]([H:8])[c:6]1[H:9])[H:7]>>[O-:1][C:2]1=[N:3][O+:4]=[C:5]([H:8])[C:6]1([H:7])[H:9]"
O        2.15259947      -0.07262959       0.01879137
C        0.93875274      -0.37189734       0.28805337
N        0.35233456      -1.54557538       0.40719895
O       -1.02793078      -1.27086018       0.22279561
C       -1.22646363      -0.03371651      -0.08845522
C       -0.05018497       0.69232537      -0.06815083
H        1.10696105       0.60533086      -0.77220859
H       -2.25915692       0.26162632      -0.22205214
H        0.01308847       1.73539645       0.21402747
9
Frame=2 idx=000321 GeodesicLength=0.13281570952474 rxn_smarts="[O:1]([c:2]1[n:3][o:4][c:5]([H:8])[c:6]1[H:9])[H:7]>>[O-:1][C:2]1=[N:3][O+:4]=[C:5]([H:8])[C:6]1([H:7])[H:9]"
O        2.14894584      -0.06782300       0.03273739
C        0.93541354      -0.36652319       0.30515768
N        0.35208517      -1.54565038       0.39528496
O       -1.02765549      -1.27209306       0.21607263
C       -1.22834865      -0.03384492      -0.08995059
C       -0.05000074       0.69146940      -0.07779113
H        1.12379524       0.59794198      -0.79257492
H       -2.26275127       0.26408992      -0.20316802
H        0.00851636       1.73243326       0.21423200
9
Frame=3 idx=000321 GeodesicLength=0.19917735309419066 rxn_smarts="[O:1]([c:2]1[n:3][o:4][c:5]([H:8])[c:6]1[H:9])[H:7]>>[O-:1][C:2]1=[N:3][O+:4]=[C:5]([H:8])[C:6]1([H:7])[H:9]"
O        2.14485993      -0.06312252       0.04596100
C        0.93170220      -0.36115937       0.32186418
N        0.35176456      -1.54506894       0.38512654
O       -1.02718416      -1.27356464       0.20780959
C       -1.23018790      -0.03400310      -0.09199606
C       -0.04981781       0.69062111      -0.08705761
H        1.14114445       0.59032231      -0.81284134
H       -2.26598878       0.26655314      -0.18353418
H        0.00370752       1.72942203       0.21466788
9
Frame=4 idx=000321 GeodesicLength=0.26551587960013057 rxn_smarts="[O:1]([c:2]1[n:3][o:4][c:5]([H:8])[c:6]1[H:9])[H:7]>>[O-:1][C:2]1=[N:3][O+:4]=[C:5]([H:8])[C:6]1([H:7])[H:9]"
O        2.14038135      -0.05858340       0.05798472
C        0.92773973      -0.35585763       0.33812185
N        0.35144029      -1.54400811       0.37621344
O       -1.02662409      -1.27502689       0.19916580
C       -1.23202856      -0.03404198      -0.09380612
C       -0.04964155       0.68986541      -0.09554511
H        1.15874081       0.58252910      -0.83313168
H       -2.26880425       0.26871663      -0.16484213
H       -0.00120372       1.72640686       0.21583923
9
Frame=5 idx=000321 GeodesicLength=0.3319037952219635 rxn_smarts="[O:1]([c:2]1[n:3][o:4][c:5]([H:8])[c:6]1[H:9])[H:7]>>[O-:1][C:2]1=[N:3][O+:4]=[C:5]([H:8])[C:6]1([H:7])[H:9]"
O        2.13557486      -0.05413644       0.06915170
C        0.92352218      -0.35056783       0.35405446
N        0.35106629      -1.54252332       0.36847470
O       -1.02599319      -1.27651055       0.18988029
C       -1.23387853      -0.03405548      -0.09587764
C       -0.04947773       0.68918253      -0.10348357
H        1.17679799       0.57452924      -0.85344167
H       -2.27129985       0.27069760      -0.14624058
H       -0.00631203       1.72338427       0.21748230
9
Frame=6 idx=000321 GeodesicLength=0.3982994138679362 rxn_smarts="[O:1]([c:2]1[n:3][o:4][c:5]([H:8])[c:6]1[H:9])[H:7]>>[O-:1][C:2]1=[N:3][O+:4]=[C:5]([H:8])[C:6]1([H:7])[H:9]"
O        2.13042809      -0.04978620       0.07940518
C        0.91907573      -0.34529453       0.36967702
N        0.35064466      -1.54068616       0.36170696
O       -1.02530587      -1.27793829       0.18029382
C       -1.23572620      -0.03403051      -0.09813301
C       -0.04933251       0.68859654      -0.11081579
H        1.19528578       0.56633287      -0.87380102
H       -2.27345574       0.27244439      -0.12802792
H       -0.01161394       1.72036190       0.21969475
9
Frame=7 idx=000321 GeodesicLength=0.4647008935574192 rxn_smarts="[O:1]([c:2]1[n:3][o:4][c:5]([H:8])[c:6]1[H:9])[H:7]>>[O-:1][C:2]1=[N:3][O+:4]=[C:5]([H:8])[C:6]1([H:7])[H:9]"
O        2.12495532      -0.04552935       0.08872166
C        0.91443338      -0.34003933       0.38501727
N        0.35017858      -1.53855084       0.35575078
O       -1.02458078      -1.27926262       0.17063920
C       -1.23757408      -0.03395780      -0.10050731
C       -0.04921167       0.68812796      -0.11750622
H        1.21420148       0.55793958      -0.89425000
H       -2.27529614       0.27392480      -0.11040445
H       -0.01710608       1.71734759       0.22253908
9
Frame=8 idx=000321 GeodesicLength=0.5311069980131621 rxn_smarts="[O:1]([c:2]1[n:3][o:4][c:5]([H:8])[c:6]1[H:9])[H:7]>>[O-:1][C:2]1=[N:3][O+:4]=[C:5]([H:8])[C:6]1([H:7])[H:9]"
O        2.11915740      -0.04134257       0.09717521
C        0.90960312      -0.33479074       0.40012463
N        0.34966455      -1.53615098       0.35049826
O       -1.02381766      -1.28047689       0.16094164
C       -1.23942652      -0.03384240      -0.10302570
C       -0.04912241       0.68778373      -0.12359081
H        1.23359923       0.54932113      -0.91481094
H       -2.27685148       0.27515039      -0.09328081
H       -0.02280622       1.71434835       0.22596853
9
Frame=9 idx=000321 GeodesicLength=0.5975184096189798 rxn_smarts="[O:1]([c:2]1[n:3][o:4][c:5]([H:8])[c:6]1[H:9])[H:7]>>[O-:1][C:2]1=[N:3][O+:4]=[C:5]([H:8])[C:6]1([H:7])[H:9]"
O        2.11304371      -0.03721880       0.10476013
C        0.90460988      -0.32954708       0.41502593
N        0.34910693      -1.53351571       0.34585174
O       -1.02302426      -1.28156211       0.15131383
C       -1.24128897      -0.03367625      -0.10562917
C       -0.04907282       0.68757897      -0.12905401
H        1.25350037       0.54046198      -0.93551979
H       -2.27815893       0.27610834      -0.07676237
H       -0.02871590       1.71137066       0.23001371
9
Frame=10 idx=000321 GeodesicLength=0.6639349369177114 rxn_smarts="[O:1]([c:2]1[n:3][o:4][c:5]([H:8])[c:6]1[H:9])[H:7]>>[O-:1][C:2]1=[N:3][O+:4]=[C:5]([H:8])[C:6]1([H:7])[H:9]"
O        2.10661752      -0.03314963       0.11146320
C        0.89947851      -0.32430924       0.42974007
N        0.34851067      -1.53066688       0.34173172
O       -1.02220731      -1.28250390       0.14186493
C       -1.24316414      -0.03345715      -0.10827140
C       -0.04907200       0.68752519      -0.13388101
H        1.27393268       0.53135201      -0.95641061
H       -2.27925552       0.27679781      -0.06094938
H       -0.03484042       1.70841180       0.23471248
9
Frame=11 idx=000321 GeodesicLength=0.7303497191469969 rxn_smarts="[O:1]([c:2]1[n:3][o:4][c:5]([H:8])[c:6]1[H:9])[H:7]>>[O-:1][C:2]1=[N:3][O+:4]=[C:5]([H:8])[C:6]1([H:7])[H:9]"
O        2.09988852      -0.02913656       0.11723525
C        0.89424608      -0.31908317       0.44427636
N        0.34788681      -1.52762512       0.33805851
O       -1.02137532      -1.28328342       0.13275092
C       -1.24505159      -0.03317731      -0.11087129
C       -0.04912861       0.68763937      -0.13802578
H        1.29490514       0.52198502      -0.97752478
H       -2.28019776       0.27720656      -0.04603734
H       -0.04117326       1.70547463       0.24013815
9
Frame=12 idx=000321 GeodesicLength=0.7967651692084734 rxn_smarts="[O:1]([c:2]1[n:3][o:4][c:5]([H:8])[c:6]1[H:9])[H:7]>>[O-:1][C:2]1=[N:3][O+:4]=[C:5]([H:8])[C:6]1([H:7])[H:9]"
O        2.09285417      -0.02515802       0.12211816
C        0.88892304      -0.31386146       0.45866322
N        0.34723861      -1.52440100       0.33478611
O       -1.02052788      -1.28391130       0.12394896
C       -1.24695885      -0.03284017      -0.11342645
C       -0.04925530       0.68792766      -0.14151328
H        1.31648763       0.51232930      -0.99888546
H       -2.28102992       0.27735448      -0.03195422
H       -0.04773150       1.70256051       0.24626296
9
Frame=13 idx=000321 GeodesicLength=0.8631798953126768 rxn_smarts="[O:1]([c:2]1[n:3][o:4][c:5]([H:8])[c:6]1[H:9])[H:7]>>[O-:1][C:2]1=[N:3][O+:4]=[C:5]([H:8])[C:6]1([H:7])[H:9]"
O        2.08550872      -0.02119659       0.12612404
C        0.88352381      -0.30863879       0.47291765
N        0.34657078      -1.52100128       0.33186922
O       -1.01966511      -1.28439016       0.11547395
C       -1.24889091      -0.03244563      -0.11591313
C       -0.04946586       0.68839889      -0.14434913
H        1.33874273       0.50235323      -1.02051890
H       -2.28179616       0.27725175      -0.01869440
H       -0.05452801       1.69966858       0.25309071
9
Frame=14 idx=000321 GeodesicLength=0.9295939918787453 rxn_smarts="[O:1]([c:2]1[n:3][o:4][c:5]([H:8])[c:6]1[H:9])[H:7]>>[O-:1][C:2]1=[N:3][O+:4]=[C:5]([H:8])[C:6]1([H:7])[H:9]"
O        2.07784150      -0.01722909       0.12928048
C        0.87805476      -0.30340596       0.48705647
N        0.34588517      -1.51742864       0.32927155
O       -1.01878480      -1.28472740       0.10729724
C       -1.25085642      -0.03199396      -0.11832168
C       -0.04977706       0.68906100      -0.14655172
H        1.36175344       0.49201429      -1.04244369
H       -2.28253584       0.27690935      -0.00619186
H       -0.06158075       1.69680041       0.26060320
9
Frame=15 idx=000321 GeodesicLength=0.9960074159001084 rxn_smarts="[O:1]([c:2]1[n:3][o:4][c:5]([H:8])[c:6]1[H:9])[H:7]>>[O-:1][C:2]1=[N:3][O+:4]=[C:5]([H:8])[C:6]1([H:7])[H:9]"
O        2.06984133      -0.01323363       0.13159536
C        0.87252606      -0.29815499       0.50108726
N        0.34518465      -1.51368412       0.32695934
O       -1.01788721      -1.28492709       0.09941323
C       -1.25286468      -0.03148512      -0.12063456
C       -0.05020820       0.68992433      -0.14812871
H        1.38560520       0.48126982      -1.06467886
H       -2.28328926       0.27633509       0.00558428
H       -0.06890790       1.69395572       0.26880265
9
Frame=16 idx=000321 GeodesicLength=1.0624202571797334 rxn_smarts="[O:1]([c:2]1[n:3][o:4][c:5]([H:8])[c:6]1[H:9])[H:7]>>[O-:1][C:2]1=[N:3][O+:4]=[C:5]([H:8])[C:6]1([H:7])[H:9]"
O        2.06149379      -0.00918456       0.13307355
C        0.86694616      -0.29287631       0.51501212
N        0.34447151      -1.50976563       0.32489965
O       -1.01697280      -1.28499220       0.09181122
C       -1.25492688      -0.03091867      -0.12283546
C       -0.05078176       0.69100048      -0.14908750
H        1.41039592       0.47006838      -1.08723961
H       -2.28409518       0.27553456       0.01667349
H       -0.07653076       1.69113396       0.27769255
