13
Frame=0 idx=003124 GeodesicLength=0.0 rxn_smarts="[O:1]([C:2]([C:3]([C:4]([C:5]#[N:6])([H:12])[H:13])([H:10])[H:11])([H:8])[H:9])[H:7]>>[O:1]([C:2]([C:3]([C:4]([N+:6]#[C-:5])([H:12])[H:13])([H:10])[H:11])([H:8])[H:9])[H:7]"
O        1.62722058       0.13847997       1.07226699
C        1.28644091       0.27256208      -0.28924487
C        0.08105473      -0.57821100      -0.67354322
C       -1.10423204      -0.44784859       0.24677454
C       -1.25181922       1.26892408       0.68879121
N       -2.18563478       1.07888214      -0.01036739
H        1.05175489       0.72700924       1.56949555
H        2.15230690      -0.04927933      -0.87039894
H        1.09178532       1.32086811      -0.53881615
H        0.35960464      -1.63770588      -0.64043740
H       -0.21528893      -0.35149408      -1.70054641
H       -0.91566226      -0.76450545       1.26826332
H       -1.97753072      -0.97768131      -0.12223724
13
Frame=1 idx=003124 GeodesicLength=0.0560575229053583 rxn_smarts="[O:1]([C:2]([C:3]([C:4]([C:5]#[N:6])([H:12])[H:13])([H:10])[H:11])([H:8])[H:9])[H:7]>>[O:1]([C:2]([C:3]([C:4]([N+:6]#[C-:5])([H:12])[H:13])([H:10])[H:11])([H:8])[H:9])[H:7]"
O        1.62441685       0.11814644       1.07314791
C        1.28276650       0.27135700      -0.28640146
C        0.07915395      -0.57960232      -0.67323597
C       -1.10897427      -0.44508776       0.24520951
C       -1.27366870       1.27509348       0.69592191
N       -2.18071856       1.08410543      -0.03351821
H        1.09416228       0.74265987       1.57600662
H        2.14746888      -0.04101112      -0.87500745
H        1.08285018       1.32099409      -0.52643063
H        0.35847022      -1.63869704      -0.63989784
H       -0.21358379      -0.35405948      -1.70147953
H       -0.91556719      -0.76609271       1.26493592
H       -1.97677635      -0.98780589      -0.11925076
13
Frame=2 idx=003124 GeodesicLength=0.11199362235125727 rxn_smarts="[O:1]([C:2]([C:3]([C:4]([C:5]#[N:6])([H:12])[H:13])([H:10])[H:11])([H:8])[H:9])[H:7]>>[O:1]([C:2]([C:3]([C:4]([N+:6]#[C-:5])([H:12])[H:13])([H:10])[H:11])([H:8])[H:9])[H:7]"
O        1.62074965       0.09884069       1.07422585
C        1.27881746       0.27031565      -0.28336261
C        0.07720147      -0.58108134      -0.67288349
C       -1.11398774      -0.44242914       0.24342280
C       -1.29634253       1.28098357       0.70286916
N       -2.17534811       1.08949270      -0.05632347
H        1.13921098       0.75750290       1.58181198
H        2.14256291      -0.03262000      -0.87884662
H        1.07351909       1.32109216      -0.51412165
H        0.35743683      -1.63972569      -0.63909294
H       -0.21176371      -0.35683672      -1.70242554
H       -0.91589793      -0.76777882       1.26138541
H       -1.97615839      -0.99775595      -0.11665888
13
Frame=3 idx=003124 GeodesicLength=0.16781927734820706 rxn_smarts="[O:1]([C:2]([C:3]([C:4]([C:5]#[N:6])([H:12])[H:13])([H:10])[H:11])([H:8])[H:9])[H:7]>>[O:1]([C:2]([C:3]([C:4]([N+:6]#[C-:5])([H:12])[H:13])([H:10])[H:11])([H:8])[H:9])[H:7]"
O        1.61622626       0.08058149       1.07556146
C        1.27458228       0.26945892      -0.28009869
C        0.07519520      -0.58263033      -0.67246412
C       -1.11928993      -0.43986328       0.24141256
C       -1.31993785       1.28660488       0.70953852
N       -2.16958853       1.09502010      -0.07882711
H        1.18712674       0.77137874       1.58678797
H        2.13757710      -0.02407613      -0.88191513
H        1.06377302       1.32119691      -0.50181384
H        0.35650850      -1.64077163      -0.63799086
H       -0.20981510      -0.35981450      -1.70336611
H       -0.91668630      -0.76950510       1.25763070
H       -1.97567140      -1.00758008      -0.11445534
13
Frame=4 idx=003124 GeodesicLength=0.22353757285362236 rxn_smarts="[O:1]([C:2]([C:3]([C:4]([C:5]#[N:6])([H:12])[H:13])([H:10])[H:11])([H:8])[H:9])[H:7]>>[O:1]([C:2]([C:3]([C:4]([N+:6]#[C-:5])([H:12])[H:13])([H:10])[H:11])([H:8])[H:9])[H:7]"
O        1.61085571       0.06340683       1.07721792
C        1.27004840       0.26881481      -0.27657697
C        0.07313416      -0.58422820      -0.67195119
C       -1.12489966      -0.43737756       0.23917800
C       -1.34456540       1.29197159       0.71582203
N       -2.16351057       1.10065869      -0.10108741
H        1.23815170       0.78406722       1.59078933
H        2.13249653      -0.01533939      -0.88420921
H        1.05358860       1.32134887      -0.48942235
H        0.35569280      -1.64181044      -0.63654992
H       -0.20772184      -0.36298215      -1.70427879
H       -0.91796393      -0.77120197       1.25369507
H       -1.97530652      -1.01732830      -0.11262652
13
Frame=5 idx=003124 GeodesicLength=0.2790913104157765 rxn_smarts="[O:1]([C:2]([C:3]([C:4]([C:5]#[N:6])([H:12])[H:13])([H:10])[H:11])([H:8])[H:9])[H:7]>>[O:1]([C:2]([C:3]([C:4]([N+:6]#[C-:5])([H:12])[H:13])([H:10])[H:11])([H:8])[H:9])[H:7]"
O        1.60478271       0.04735938       1.07920411
C        1.26521450       0.26843831      -0.27277856
C        0.07102994      -0.58584127      -0.67129722
C       -1.13081892      -0.43492374       0.23673837
C       -1.37037244       1.29715888       0.72150890
N       -2.15722529       1.10635173      -0.12323400
H        1.29237622       0.79504857       1.59372833
H        2.12727964      -0.00630058      -0.88580832
H        1.04293545       1.32161937      -0.47681825
H        0.35500914      -1.64280291      -0.63467569
H       -0.20546095      -0.36635269      -1.70512588
H       -0.91972820      -0.77269291       1.24964310
H       -1.97502179      -1.02706214      -0.11108489
13
Frame=6 idx=003124 GeodesicLength=0.3345037740175746 rxn_smarts="[O:1]([C:2]([C:3]([C:4]([C:5]#[N:6])([H:12])[H:13])([H:10])[H:11])([H:8])[H:9])[H:7]>>[O:1]([C:2]([C:3]([C:4]([N+:6]#[C-:5])([H:12])[H:13])([H:10])[H:11])([H:8])[H:9])[H:7]"
O        1.59798198       0.03248033       1.08159663
C        1.26006093       0.26837063      -0.26865957
C        0.06888152      -0.58744226      -0.67047004
C       -1.13707179      -0.43248993       0.23409104
C       -1.39749571       1.30217651       0.72646496
N       -2.15082065       1.11205380      -0.14534523
H        1.35013053       0.80405193       1.59540322
H        2.12190722       0.00310282      -0.88668831
H        1.03177977       1.32205854      -0.46388686
H        0.35447074      -1.64371650      -0.63231769
H       -0.20300891      -0.36991334      -1.70588076
H       -0.92201376      -0.77389656       1.24550282
H       -1.97480189      -1.03683598      -0.10981019
13
Frame=7 idx=003124 GeodesicLength=0.38978486274625285 rxn_smarts="[O:1]([C:2]([C:3]([C:4]([C:5]#[N:6])([H:12])[H:13])([H:10])[H:11])([H:8])[H:9])[H:7]>>[O:1]([C:2]([C:3]([C:4]([N+:6]#[C-:5])([H:12])[H:13])([H:10])[H:11])([H:8])[H:9])[H:7]"
O        1.59042643       0.01885100       1.08448017
C        1.25456551       0.26866568      -0.26417055
C        0.06669144      -0.58899676      -0.66942818
C       -1.14368143      -0.43005912       0.23123592
C       -1.42608739       1.30704048       0.73053043
N       -2.14439563       1.11770894      -0.16751571
H        1.41175832       0.81069366       1.59556694
H        2.11635504       0.01295011      -0.88681852
H        1.02007958       1.32272621      -0.45050429
H        0.35409915      -1.64450857      -0.62940705
H       -0.20033594      -0.37365032      -1.70650886
H       -0.92485380      -0.77471378       1.24131072
H       -1.97462129      -1.04670753      -0.10877100
13
Frame=8 idx=003124 GeodesicLength=0.4449123361262914 rxn_smarts="[O:1]([C:2]([C:3]([C:4]([C:5]#[N:6])([H:12])[H:13])([H:10])[H:11])([H:8])[H:9])[H:7]>>[O:1]([C:2]([C:3]([C:4]([N+:6]#[C-:5])([H:12])[H:13])([H:10])[H:11])([H:8])[H:9])[H:7]"
O        1.58221782       0.00655854       1.08788718
C        1.24870988       0.26942207      -0.25927942
C        0.06447530      -0.59046164      -0.66810907
C       -1.15065611      -0.42758318       0.22819251
C       -1.45634567       1.31180944       0.73345689
N       -2.13806599       1.12324235      -0.18992931
H        1.47746917       0.81428283       1.59403600
H        2.11056483       0.02340691      -0.88626084
H        1.00777248       1.32372697      -0.43649958
H        0.35393749      -1.64512605      -0.62581106
H       -0.19740507      -0.37759421      -1.70696498
H       -0.92824782      -0.77494331       1.23714341
H       -1.97442631      -1.05674074      -0.10786172
13
Frame=9 idx=003124 GeodesicLength=0.4997609241058065 rxn_smarts="[O:1]([C:2]([C:3]([C:4]([C:5]#[N:6])([H:12])[H:13])([H:10])[H:11])([H:8])[H:9])[H:7]>>[O:1]([C:2]([C:3]([C:4]([N+:6]#[C-:5])([H:12])[H:13])([H:10])[H:11])([H:8])[H:9])[H:7]"
O        1.57348587      -0.00428068       1.09186360
C        1.24251830       0.27069620      -0.25393552
C        0.06226061      -0.59176560      -0.66644176
C       -1.15798015      -0.42500695       0.22500052
C       -1.48845691       1.31655474       0.73497130
N       -2.13199650       1.12853228      -0.21271701
H        1.54723844       0.81409915       1.59045850
H        2.10451572       0.03459417      -0.88503598
H        0.99485141       1.32511705      -0.42170202
H        0.35401549      -1.64548220      -0.62145124
H       -0.19417057      -0.38167732      -1.70716831
H       -0.93215730      -0.77437284       1.23309252
H       -1.97412442      -1.06700800      -0.10693460
13
Frame=10 idx=003124 GeodesicLength=0.5543413803121698 rxn_smarts="[O:1]([C:2]([C:3]([C:4]([C:5]#[N:6])([H:12])[H:13])([H:10])[H:11])([H:8])[H:9])[H:7]>>[O:1]([C:2]([C:3]([C:4]([N+:6]#[C-:5])([H:12])[H:13])([H:10])[H:11])([H:8])[H:9])[H:7]"
O        1.56439760      -0.01357664       1.09641158
C        1.23596796       0.27264652      -0.24811697
C        0.06007870      -0.59285642      -0.66434589
C       -1.16564425      -0.42226511       0.22169493
C       -1.52265571       1.32134462       0.73475182
N       -2.12630724       1.13348578      -0.23613827
H        1.62117222       0.80917786       1.58465871
H        2.09811353       0.04677819      -0.88326771
H        0.98122102       1.32705222      -0.40589804
H        0.35441188      -1.64551248      -0.61613410
H       -0.19058483      -0.38597684      -1.70706936
H       -0.93654447      -0.77272307       1.22927178
H       -1.97362639      -1.07757463      -0.10581847
13
Frame=11 idx=003124 GeodesicLength=0.608646794572935 rxn_smarts="[O:1]([C:2]([C:3]([C:4]([C:5]#[N:6])([H:12])[H:13])([H:10])[H:11])([H:8])[H:9])[H:7]>>[O:1]([C:2]([C:3]([C:4]([N+:6]#[C-:5])([H:12])[H:13])([H:10])[H:11])([H:8])[H:9])[H:7]"
O        1.55499268      -0.02112688       1.10160958
C        1.22904606       0.27540303      -0.24176672
C        0.05796666      -0.59366727      -0.66173499
C       -1.17364188      -0.41931712       0.21830514
C       -1.55914148       1.32619414       0.73253188
N       -2.12110774       1.13800129      -0.26035722
H        1.69937198       0.79862267       1.57620308
H        2.09130876       0.06015868      -0.88095407
H        0.96681445       1.32964224      -0.38892450
H        0.35520797      -1.64512505      -0.60970536
H       -0.18658060      -0.39049143      -1.70658876
H       -0.94139462      -0.76979850       1.22576694
H       -1.97284225      -1.08849580      -0.10438500
13
Frame=12 idx=003124 GeodesicLength=0.6626915057456997 rxn_smarts="[O:1]([C:2]([C:3]([C:4]([C:5]#[N:6])([H:12])[H:13])([H:10])[H:11])([H:8])[H:9])[H:7]>>[O:1]([C:2]([C:3]([C:4]([N+:6]#[C-:5])([H:12])[H:13])([H:10])[H:11])([H:8])[H:9])[H:7]"
O        1.54547221      -0.02673937       1.10748812
C        1.22174955       0.27916684      -0.23485603
C        0.05597661      -0.59412608      -0.65851488
C       -1.18193543      -0.41609465       0.21488691
C       -1.59814594       1.33115445       0.72796028
N       -2.11650809       1.14196469      -0.28563464
H        1.78168779       0.78121321       1.56478281
H        2.08400422       0.07504344      -0.87821954
H        0.95154316       1.33307085      -0.37058996
H        0.35651516      -1.64423568      -0.60195378
H       -0.18209905      -0.39528109      -1.70566774
H       -0.94662312      -0.76529151       1.22272238
H       -1.97163705      -1.09984508      -0.10240394
13
Frame=13 idx=003124 GeodesicLength=0.7160835933391589 rxn_smarts="[O:1]([C:2]([C:3]([C:4]([C:5]#[N:6])([H:12])[H:13])([H:10])[H:11])([H:8])[H:9])[H:7]>>[O:1]([C:2]([C:3]([C:4]([N+:6]#[C-:5])([H:12])[H:13])([H:10])[H:11])([H:8])[H:9])[H:7]"
O        1.53637394      -0.03038279       1.11387575
C        1.21422750       0.28396348      -0.22739778
C        0.05423035      -0.59410054      -0.65456607
C       -1.19035790      -0.41246855       0.21158746
C       -1.63971760       1.33626548       0.72068424
N       -2.11260504       1.14515484      -0.31201019
H        1.86648099       0.75588846       1.54993555
H        2.07620456       0.09162940      -0.87527047
H        0.93549885       1.33728136      -0.35075468
H        0.35842249      -1.64264381      -0.59281634
H       -0.17703041      -0.40018392      -1.70409775
H       -0.95198062      -0.75881973       1.22029071
H       -1.96974710      -1.11158367      -0.09946040
13
Frame=14 idx=003124 GeodesicLength=0.7690795396161252 rxn_smarts="[O:1]([C:2]([C:3]([C:4]([C:5]#[N:6])([H:12])[H:13])([H:10])[H:11])([H:8])[H:9])[H:7]>>[O:1]([C:2]([C:3]([C:4]([N+:6]#[C-:5])([H:12])[H:13])([H:10])[H:11])([H:8])[H:9])[H:7]"
O        1.52778920      -0.03176147       1.12086568
C        1.20645981       0.29009304      -0.21938138
C        0.05278845      -0.59354780      -0.64982310
C       -1.19887445      -0.40841643       0.20844145
C       -1.68398633       1.34152125       0.71042676
N       -2.10946943       1.14751969      -0.33969307
H        1.95360470       0.72138855       1.53144738
H        2.06780671       0.11027218      -0.87221557
H        0.91855751       1.34255841      -0.32936794
H        0.36110195      -1.64032049      -0.58204550
H       -0.17133317      -0.40535398      -1.70189664
H       -0.95738844      -0.75015697       1.21860930
H       -1.96705651      -1.12379599      -0.09536737
13
Frame=15 idx=003124 GeodesicLength=0.8219247209293253 rxn_smarts="[O:1]([C:2]([C:3]([C:4]([C:5]#[N:6])([H:12])[H:13])([H:10])[H:11])([H:8])[H:9])[H:7]>>[O:1]([C:2]([C:3]([C:4]([N+:6]#[C-:5])([H:12])[H:13])([H:10])[H:11])([H:8])[H:9])[H:7]"
O        1.51933856      -0.02995630       1.12884077
C        1.19833304       0.29789084      -0.21067618
C        0.05173916      -0.59238503      -0.64411734
C       -1.20748132      -0.40398261       0.20544371
C       -1.73104585       1.34670838       0.69703888
N       -2.10701137       1.14901569      -0.36876335
H        2.04331597       0.67605819       1.50824314
H        2.05872813       0.13127102      -0.86877953
H        0.90051328       1.34914310      -0.30658949
H        0.36482863      -1.63709674      -0.56924502
H       -0.16485595      -0.41085894      -1.69893016
H       -0.96292557      -0.73932957       1.21770123
H       -1.96347669      -1.13647804      -0.09016664
13
Frame=16 idx=003124 GeodesicLength=0.8743834086293791 rxn_smarts="[O:1]([C:2]([C:3]([C:4]([C:5]#[N:6])([H:12])[H:13])([H:10])[H:11])([H:8])[H:9])[H:7]>>[O:1]([C:2]([C:3]([C:4]([N+:6]#[C-:5])([H:12])[H:13])([H:10])[H:11])([H:8])[H:9])[H:7]"
O        1.51178396      -0.02491534       1.13715882
C        1.19002476       0.30764075      -0.20153590
C        0.05133106      -0.59042230      -0.63730884
C       -1.21587127      -0.39895976       0.20282500
C       -1.78093392       1.35165197       0.68016056
N       -2.10509973       1.14936113      -0.39924330
H        2.13269092       0.61800525       1.48048178
H        2.04891103       0.15508808      -0.86554887
H        0.88138607       1.35711166      -0.28252331
H        0.36991052      -1.63261097      -0.55414097
H       -0.15741010      -0.41683780      -1.69494430
H       -0.96815604      -0.72564493       1.21773718
H       -1.95856725      -1.14946775      -0.08311785
