14
Frame=0 idx=002828 GeodesicLength=0.0 rxn_smarts="[C:1]([C:2]1([C:5](=[O:6])[H:14])[C:3]([H:10])([H:11])[C:4]1([H:12])[H:13])([H:7])([H:8])[H:9]>>[C:1]([C:2]([C:3]([C:5](=[O:6])[H:14])([H:10])[H:11])=[C:4]([H:12])[H:13])([H:7])([H:8])[H:9]"
C        1.30075439       0.26266133       0.89199552
C       -0.10662681       0.19615217       0.40674288
C       -0.34765452      -0.50560592      -1.12788869
C       -1.00115668      -0.73834464       0.83345806
C       -0.40600291       1.01029166      -0.99877075
O        0.49356084       1.76304469      -1.44916765
H        1.74909623      -0.72076544       1.05371259
H        1.88553897       0.83723556       0.17194092
H        1.30669772       0.80440745       1.83939638
H       -1.23188893      -1.06965431      -1.38829625
H        0.59763179      -0.97140464      -1.38282391
H       -0.73194223      -1.50415863       1.55890601
H       -2.04383480      -0.69563118       0.54025634
H       -1.46417306       1.33177184      -0.94946143
14
Frame=1 idx=002828 GeodesicLength=0.08174843779035952 rxn_smarts="[C:1]([C:2]1([C:5](=[O:6])[H:14])[C:3]([H:10])([H:11])[C:4]1([H:12])[H:13])([H:7])([H:8])[H:9]>>[C:1]([C:2]([C:3]([C:5](=[O:6])[H:14])([H:10])[H:11])=[C:4]([H:12])[H:13])([H:7])([H:8])[H:9]"
C        1.30162601       0.26093434       0.89261842
C       -0.10390515       0.18924158       0.40153036
C       -0.34298117      -0.51595888      -1.11514012
C       -1.00111623      -0.74559718       0.83060926
C       -0.40566898       1.02095574      -1.00616499
O        0.48450698       1.77847582      -1.45735420
H        1.75590467      -0.72120295       1.04497095
H        1.89023816       0.84190296       0.18084685
H        1.30087640       0.79537790       1.84405735
H       -1.23273838      -1.06135674      -1.39608126
H        0.59815731      -0.98542653      -1.37860176
H       -0.73232935      -1.49945184       1.56799985
H       -2.04651365      -0.69447853       0.54892422
H       -1.46605663       1.33658430      -0.95821492
14
Frame=2 idx=002828 GeodesicLength=0.16352116684513285 rxn_smarts="[C:1]([C:2]1([C:5](=[O:6])[H:14])[C:3]([H:10])([H:11])[C:4]1([H:12])[H:13])([H:7])([H:8])[H:9]>>[C:1]([C:2]([C:3]([C:5](=[O:6])[H:14])([H:10])[H:11])=[C:4]([H:12])[H:13])([H:7])([H:8])[H:9]"
C        1.30248519       0.25910075       0.89321461
C       -0.10119546       0.18238093       0.39634836
C       -0.33841714      -0.52633974      -1.10252389
C       -1.00111200      -0.75280959       0.82783462
C       -0.40540040       1.03177653      -1.01350505
O        0.47515341       1.79421433      -1.46553238
H        1.76262690      -0.72164937       1.03629717
H        1.89498190       0.84628352       0.18979762
H        1.29518277       0.78624969       1.84857173
H       -1.23293148      -1.05304067      -1.40380282
H        0.59849693      -0.99963080      -1.37420119
H       -0.73278573      -1.49456373       1.57696254
H       -2.04903967      -0.69332716       0.55764357
H       -1.46804521       1.34135531      -0.96710488
14
Frame=3 idx=002828 GeodesicLength=0.24523563597897902 rxn_smarts="[C:1]([C:2]1([C:5](=[O:6])[H:14])[C:3]([H:10])([H:11])[C:4]1([H:12])[H:13])([H:7])([H:8])[H:9]>>[C:1]([C:2]([C:3]([C:5](=[O:6])[H:14])([H:10])[H:11])=[C:4]([H:12])[H:13])([H:7])([H:8])[H:9]"
C        1.30331185       0.25715290       0.89376752
C       -0.09849647       0.17556122       0.39118982
C       -0.33394339      -0.53675632      -1.09003120
C       -1.00113404      -0.75996708       0.82512868
C       -0.40519170       1.04275863      -1.02076573
O        0.46548676       1.81024561      -1.47367626
H        1.76923528      -0.72210302       1.02767220
H        1.89974808       0.85035396       0.19877916
H        1.28958600       0.77701952       1.85292108
H       -1.23245301      -1.04470230      -1.41145464
H        0.59866965      -1.01400541      -1.36962915
H       -0.73330569      -1.48945694       1.58579144
H       -2.05138953      -0.69216117       0.56641848
H       -1.47012379       1.34606040      -0.97611139
14
Frame=4 idx=002828 GeodesicLength=0.32697752843252703 rxn_smarts="[C:1]([C:2]1([C:5](=[O:6])[H:14])[C:3]([H:10])([H:11])[C:4]1([H:12])[H:13])([H:7])([H:8])[H:9]>>[C:1]([C:2]([C:3]([C:5](=[O:6])[H:14])([H:10])[H:11])=[C:4]([H:12])[H:13])([H:7])([H:8])[H:9]"
C        1.30413298       0.25510037       0.89428657
C       -0.09580445       0.16878445       0.38604867
C       -0.32956392      -0.54723826      -1.07764873
C       -1.00119791      -0.76707133       0.82250479
C       -0.40504782       1.05393024      -1.02796276
O        0.45550685       1.82660158      -1.48181544
H        1.77577018      -0.72256864       1.01909079
H        1.90456730       0.85416465       0.20781692
H        1.28411107       0.76766897       1.85713554
H       -1.23135557      -1.03633958      -1.41904054
H        0.59868780      -1.02858198      -1.36485667
H       -0.73389511      -1.48418114       1.59447290
H       -2.05359767      -0.69097409       0.57525193
H       -1.47231373       1.35070476      -0.98528398
14
Frame=5 idx=002828 GeodesicLength=0.4087032030884654 rxn_smarts="[C:1]([C:2]1([C:5](=[O:6])[H:14])[C:3]([H:10])([H:11])[C:4]1([H:12])[H:13])([H:7])([H:8])[H:9]>>[C:1]([C:2]([C:3]([C:5](=[O:6])[H:14])([H:10])[H:11])=[C:4]([H:12])[H:13])([H:7])([H:8])[H:9]"
C        1.30493975       0.25293973       0.89476529
C       -0.09311516       0.16204266       0.38092035
C       -0.32526960      -0.55779918      -1.06537076
C       -1.00129621      -0.77411230       0.81995973
C       -0.40497025       1.06530544      -1.03507436
O        0.44519792       1.84328266      -1.48992518
H        1.78220566      -0.72305171       1.01057054
H        1.90943435       0.85767823       0.21689176
H        1.27874801       0.75823029       1.86119517
H       -1.22963385      -1.02795618      -1.42656370
H        0.59856255      -1.04335459      -1.35989568
H       -0.73454689      -1.47872820       1.60299702
H       -2.05564770      -0.68975302       0.58413932
H       -1.47460857       1.35527618      -0.99460948
14
Frame=6 idx=002828 GeodesicLength=0.4904357747848671 rxn_smarts="[C:1]([C:2]1([C:5](=[O:6])[H:14])[C:3]([H:10])([H:11])[C:4]1([H:12])[H:13])([H:7])([H:8])[H:9]>>[C:1]([C:2]([C:3]([C:5](=[O:6])[H:14])([H:10])[H:11])=[C:4]([H:12])[H:13])([H:7])([H:8])[H:9]"
C        1.30574221       0.25067198       0.89520327
C       -0.09042678       0.15533181       0.37579839
C       -0.32105843      -0.56845712      -1.05318655
C       -1.00143899      -0.78108674       0.81750057
C       -0.40496168       1.07690823      -1.04209829
O        0.43455580       1.86030752      -1.49801177
H        1.78855176      -0.72355833       1.00211765
H        1.91436529       0.86090128       0.22600362
H        1.27350347       0.74870591       1.86510204
H       -1.22730582      -1.01955347      -1.43402286
H        0.59830854      -1.05832969      -1.35473740
H       -0.73526156      -1.47311726       1.61135927
H       -2.05755676      -0.68849670       0.59308017
H       -1.47701705       1.35977258      -1.00410810
14
Frame=7 idx=002828 GeodesicLength=0.5721656213790351 rxn_smarts="[C:1]([C:2]1([C:5](=[O:6])[H:14])[C:3]([H:10])([H:11])[C:4]1([H:12])[H:13])([H:7])([H:8])[H:9]>>[C:1]([C:2]([C:3]([C:5](=[O:6])[H:14])([H:10])[H:11])=[C:4]([H:12])[H:13])([H:7])([H:8])[H:9]"
C        1.30654058       0.24829641       0.89559575
C       -0.08773617       0.14864625       0.37067601
C       -0.31692455      -0.57923065      -1.04108591
C       -1.00162685      -0.78798690       0.81512941
C       -0.40502415       1.08875539      -1.04902246
O        0.42356807       1.87768337      -1.50606794
H        1.79480584      -0.72409247       0.99372920
H        1.91936176       0.86383065       0.23514966
H        1.26837351       0.73909852       1.86885336
H       -1.22437458      -1.01112579      -1.44142059
H        0.59793726      -1.07351483      -1.34937776
H       -0.73603748      -1.46734858       1.61955644
H       -2.05932457      -0.68719433       0.60207288
H       -1.47953868       1.36418295      -1.01378804
14
Frame=8 idx=002828 GeodesicLength=0.6538929069317273 rxn_smarts="[C:1]([C:2]1([C:5](=[O:6])[H:14])[C:3]([H:10])([H:11])[C:4]1([H:12])[H:13])([H:7])([H:8])[H:9]>>[C:1]([C:2]([C:3]([C:5](=[O:6])[H:14])([H:10])[H:11])=[C:4]([H:12])[H:13])([H:7])([H:8])[H:9]"
C        1.30733773       0.24581247       0.89593891
C       -0.08504038       0.14198015       0.36554623
C       -0.31286402      -0.59013882      -1.02905859
C       -1.00186279      -0.79480656       0.81284956
C       -0.40516104       1.10086663      -1.05583591
O        0.41222265       1.89542115      -1.51408917
H        1.80096846      -0.72465947       0.98540593
H        1.92442931       0.86646390       0.24432661
H        1.26335735       0.72941206       1.87244680
H       -1.22084294      -1.00266724      -1.44876072
H        0.59745960      -1.08891890      -1.34381161
H       -0.73687363      -1.46142594       1.62758792
H       -2.06095524      -0.68583825       0.61111494
H       -1.48217506       1.36849883      -1.02366092
14
Frame=9 idx=002828 GeodesicLength=0.7356180031136256 rxn_smarts="[C:1]([C:2]1([C:5](=[O:6])[H:14])[C:3]([H:10])([H:11])[C:4]1([H:12])[H:13])([H:7])([H:8])[H:9]>>[C:1]([C:2]([C:3]([C:5](=[O:6])[H:14])([H:10])[H:11])=[C:4]([H:12])[H:13])([H:7])([H:8])[H:9]"
C        1.30813655       0.24321921       0.89622847
C       -0.08233649       0.13532736       0.36040166
C       -0.30887362      -0.60120101      -1.01709415
C       -1.00215008      -0.80153923       0.81066448
C       -0.40537656       1.11326247      -1.06252647
O        0.40050618       1.91353235      -1.52207010
H        1.80704022      -0.72526522       0.97714815
H        1.92957323       0.86879803       0.25353060
H        1.25845450       0.71965000       1.87587959
H       -1.21670973      -0.99417127      -1.45604767
H        0.59688553      -1.10455161      -1.33803346
H       -0.73776923      -1.45535149       1.63545492
H       -2.06245314      -0.68442094       0.62020302
H       -1.48492737       1.37271136      -1.03373906
14
Frame=10 idx=002828 GeodesicLength=0.8173412128474418 rxn_smarts="[C:1]([C:2]1([C:5](=[O:6])[H:14])[C:3]([H:10])([H:11])[C:4]1([H:12])[H:13])([H:7])([H:8])[H:9]>>[C:1]([C:2]([C:3]([C:5](=[O:6])[H:14])([H:10])[H:11])=[C:4]([H:12])[H:13])([H:7])([H:8])[H:9]"
C        1.30893981       0.24051540       0.89645972
C       -0.07962155       0.12868096       0.35523441
C       -0.30495071      -0.61243689      -1.00518230
C       -1.00249199      -0.80817886       0.80857736
C       -0.40567588       1.12596447      -1.06908019
O        0.38840403       1.93202861      -1.53000465
H        1.81302126      -0.72591615       0.96895730
H        1.93479912       0.87082817       0.26275626
H        1.25366436       0.70981730       1.87914762
H       -1.21196991      -0.98562988      -1.46328666
H        0.59622425      -1.12042348      -1.33203787
H       -0.73872379      -1.44912579       1.64316045
H       -2.06382272      -0.68293567       0.62933274
H       -1.48779629       1.37681181      -1.04403419
14
Frame=11 idx=002828 GeodesicLength=0.8990628276988009 rxn_smarts="[C:1]([C:2]1([C:5](=[O:6])[H:14])[C:3]([H:10])([H:11])[C:4]1([H:12])[H:13])([H:7])([H:8])[H:9]>>[C:1]([C:2]([C:3]([C:5](=[O:6])[H:14])([H:10])[H:11])=[C:4]([H:12])[H:13])([H:7])([H:8])[H:9]"
C        1.30975019       0.23769945       0.89662735
C       -0.07689262       0.12203372       0.35003609
C       -0.30109341      -0.62386661      -0.99331248
C       -1.00289201      -0.81471895       0.80659156
C       -0.40606525       1.13899524      -1.07548153
O        0.37590011       1.95092191      -1.53788581
H        1.81891171      -0.72661926       0.96083424
H        1.94011223       0.87254890       0.27199747
H        1.24898639       0.69991847       1.88224628
H       -1.20661386      -0.97703460      -1.47048335
H        0.59548401      -1.13654604      -1.32581879
H       -0.73973701      -1.44274796       1.65070856
H       -2.06506869      -0.68137525       0.63849920
H       -1.49078181       1.38079098      -1.05455879
14
Frame=12 idx=002828 GeodesicLength=0.9807831172078183 rxn_smarts="[C:1]([C:2]1([C:5](=[O:6])[H:14])[C:3]([H:10])([H:11])[C:4]1([H:12])[H:13])([H:7])([H:8])[H:9]>>[C:1]([C:2]([C:3]([C:5](=[O:6])[H:14])([H:10])[H:11])=[C:4]([H:12])[H:13])([H:7])([H:8])[H:9]"
C        1.31057032       0.23476930       0.89672537
C       -0.07414672       0.11537770       0.34479770
C       -0.29730044      -0.63551073      -0.98147408
C       -1.00335373      -0.82115310       0.80471032
C       -0.40655221       1.15237867      -1.08171279
O        0.36297669       1.97022469      -1.54570527
H        1.82471136      -0.72738228       0.95278002
H        1.94551798       0.87395334       0.28124670
H        1.24442021       0.68995866       1.88516981
H       -1.20062721      -0.96837616      -1.47764404
H        0.59467236      -1.15293175      -1.31936983
H       -0.74080921      -1.43621485       1.65810510
H       -2.06619596      -0.67973277       0.64769652
H       -1.49388344       1.38463926      -1.06532553
14
Frame=13 idx=002828 GeodesicLength=1.062502362834571 rxn_smarts="[C:1]([C:2]1([C:5](=[O:6])[H:14])[C:3]([H:10])([H:11])[C:4]1([H:12])[H:13])([H:7])([H:8])[H:9]>>[C:1]([C:2]([C:3]([C:5](=[O:6])[H:14])([H:10])[H:11])=[C:4]([H:12])[H:13])([H:7])([H:8])[H:9]"
C        1.31140279       0.23172247       0.89674709
C       -0.07138088       0.10870436       0.33950958
C       -0.29357130      -0.64739039      -0.96965633
C       -1.00388087      -0.82747476       0.80293681
C       -0.40714580       1.16614009      -1.08775406
O        0.34961433       1.98994976      -1.55345346
H        1.83041995      -0.72821366       0.94479529
H        1.95102158       0.87503379       0.29049530
H        1.23996552       0.67994292       1.88791161
H       -1.19399041      -0.95964478      -1.48477556
H        0.59379598      -1.16959424      -1.31268388
H       -0.74194125      -1.42952118       1.66535719
H       -2.06720971      -0.67800085       0.65691816
H       -1.49709993       1.38834648      -1.07634773
14
Frame=14 idx=002828 GeodesicLength=1.1442208193964432 rxn_smarts="[C:1]([C:2]1([C:5](=[O:6])[H:14])[C:3]([H:10])([H:11])[C:4]1([H:12])[H:13])([H:7])([H:8])[H:9]>>[C:1]([C:2]([C:3]([C:5](=[O:6])[H:14])([H:10])[H:11])=[C:4]([H:12])[H:13])([H:7])([H:8])[H:9]"
C        1.31225007       0.22855609       0.89668506
C       -0.06859210       0.10200445       0.33416130
C       -0.28990627      -0.65952734      -0.95784840
C       -1.00447727      -0.83367725       0.80127413
C       -0.40785673       1.18030640      -1.09358281
O        0.33579194       2.01010996      -1.56111957
H        1.83603686      -0.72912257       0.93688087
H        1.95662835       0.87578120       0.29973309
H        1.23562197       0.66987705       1.89046397
H       -1.18667866      -0.95082982      -1.49188506
H        0.59286070      -1.18654844      -1.30575317
H       -0.74313432      -1.42265984       1.67247284
H       -2.06811539      -0.67617199       0.66615683
H       -1.50042916       1.39190208      -1.08763907
14
Frame=15 idx=002828 GeodesicLength=1.225938740191605 rxn_smarts="[C:1]([C:2]1([C:5](=[O:6])[H:14])[C:3]([H:10])([H:11])[C:4]1([H:12])[H:13])([H:7])([H:8])[H:9]>>[C:1]([C:2]([C:3]([C:5](=[O:6])[H:14])([H:10])[H:11])=[C:4]([H:12])[H:13])([H:7])([H:8])[H:9]"
C        1.31311463       0.22526674       0.89653081
C       -0.06577736       0.09526797       0.32874161
C       -0.28630645      -0.67194389      -0.94603931
C       -1.00514688      -0.83975382       0.79972521
C       -0.40869776       1.19490635      -1.09917356
O        0.32148630       2.03071875      -1.56869080
H        1.84156125      -0.73011911       0.92903714
H        1.96234359       0.87618531       0.30894821
H        1.23138949       0.65976695       1.89281798
H       -1.17866086      -0.94192035      -1.49898031
H        0.59187149      -1.20381067      -1.29856890
H       -0.74439054      -1.41562057       1.67946163
H       -2.06891875      -0.67423841       0.67540423
H       -1.50386815       1.39529474      -1.09921394
14
Frame=16 idx=002828 GeodesicLength=1.3076564960756398 rxn_smarts="[C:1]([C:2]1([C:5](=[O:6])[H:14])[C:3]([H:10])([H:11])[C:4]1([H:12])[H:13])([H:7])([H:8])[H:9]>>[C:1]([C:2]([C:3]([C:5](=[O:6])[H:14])([H:10])[H:11])=[C:4]([H:12])[H:13])([H:7])([H:8])[H:9]"
C        1.31399892       0.22185044       0.89627479
C       -0.06293365       0.08848415       0.32323836
C       -0.28277392      -0.68466307      -0.93421788
C       -1.00589386      -0.84569736       0.79829292
C       -0.40968400       1.20997065      -1.10449751
O        0.30667202       2.05178998      -1.57615216
H        1.84699210      -0.73121434       0.92126383
H        1.96817252       0.87623479       0.31812706
H        1.22726828       0.64961860       1.89496349
H       -1.16989912      -0.93290494      -1.50606960
H        0.59083224      -1.22139903      -1.29112089
H       -0.74571284      -1.40839025       1.68633425
H       -2.06962589      -0.67219178       0.68465124
H       -1.50741279       1.39851217      -1.11108791
