17
Frame=0 idx=010876 GeodesicLength=0.0 rxn_smarts="[C:1]([C@@:2]1([H:11])[O:3][C@@:4]2([H:12])[C:5]([H:13])([H:14])[C@@:6]12[C:7]([H:15])([H:16])[H:17])([H:8])([H:9])[H:10]>>[C:1]([C@@:2]1([H:11])[O+:3]=[C-:4][C:5]([H:13])([H:14])[C@:6]1([C:7]([H:15])([H:16])[H:17])[H:12])([H:8])([H:9])[H:10]"
C       -1.95807140      -0.04413194       0.33151380
C       -0.55877068      -0.29865546       0.84198259
O       -0.18775506      -1.67688702       0.95388058
C        1.04441539      -1.67868751       0.25822026
C        0.71937287      -0.98860245      -1.05906750
C        0.62274601       0.09458469      -0.04289644
C        1.11394329       1.49807233      -0.25093942
H       -2.16290086       1.02910682       0.32257483
H       -2.10044091      -0.43787346      -0.67492972
H       -2.68397677      -0.52213441       0.99052940
H       -0.44763484       0.14197774       1.84052755
H        1.52257214      -0.47101539       0.71003379
H        1.56591899      -0.90431553      -1.73360017
H       -0.19203808      -1.31794843      -1.54429754
H        0.42329274       2.03283245      -0.90802644
H        1.18519945       2.04152082       0.69290874
H        2.09412779       1.50215679      -0.72841434
17
Frame=1 idx=010876 GeodesicLength=0.05694388013733467 rxn_smarts="[C:1]([C@@:2]1([H:11])[O:3][C@@:4]2([H:12])[C:5]([H:13])([H:14])[C@@:6]12[C:7]([H:15])([H:16])[H:17])([H:8])([H:9])[H:10]>>[C:1]([C@@:2]1([H:11])[O+:3]=[C-:4][C:5]([H:13])([H:14])[C@:6]1([C:7]([H:15])([H:16])[H:17])[H:12])([H:8])([H:9])[H:10]"
C       -1.95504546      -0.03852026       0.33373434
C       -0.55721377      -0.29810608       0.84484183
O       -0.19513574      -1.68183429       0.95022723
C        1.03340427      -1.68747240       0.25651698
C        0.72358980      -0.98892442      -1.05835464
C        0.62880844       0.09062025      -0.03576093
C        1.10515502       1.49788539      -0.25466164
H       -2.15839520       1.03508901       0.33055477
H       -2.09673964      -0.42539497      -0.67576315
H       -2.68305329      -0.51940989       0.98861911
H       -0.44649464       0.13649538       1.84612769
H        1.54248994      -0.48086312       0.71746262
H        1.57720853      -0.91151680      -1.72602481
H       -0.18624138      -1.30821805      -1.55551494
H        0.41004789       2.02340193      -0.91565610
H        1.17205913       2.04865588       0.68588040
H        2.08555611       1.50811242      -0.73222875
17
Frame=2 idx=010876 GeodesicLength=0.1132630011869136 rxn_smarts="[C:1]([C@@:2]1([H:11])[O:3][C@@:4]2([H:12])[C:5]([H:13])([H:14])[C@@:6]12[C:7]([H:15])([H:16])[H:17])([H:8])([H:9])[H:10]>>[C:1]([C@@:2]1([H:11])[O+:3]=[C-:4][C:5]([H:13])([H:14])[C@:6]1([C:7]([H:15])([H:16])[H:17])[H:12])([H:8])([H:9])[H:10]"
C       -1.95208826      -0.03299829       0.33588500
C       -0.55572169      -0.29749187       0.84764170
O       -0.20242837      -1.68651310       0.94662880
C        1.02241822      -1.69584523       0.25470939
C        0.72773718      -0.98920101      -1.05764308
C        0.63474397       0.08685527      -0.02873371
C        1.09644602       1.49765829      -0.25825388
H       -2.15397625       1.04093002       0.33813570
H       -2.09302560      -0.41339988      -0.67638664
H       -2.68212699      -0.51663186       0.98675239
H       -0.44548866       0.13120187       1.85159030
H        1.56238083      -0.49067772       0.72462296
H        1.58801549      -0.91846044      -1.71859397
H       -0.18021832      -1.29867706      -1.56644655
H        0.39705934       2.01401026      -0.92285729
H        1.15921742       2.05540689       0.67895733
H        2.07705568       1.51383385      -0.73600845
17
Frame=3 idx=010876 GeodesicLength=0.1689575311217375 rxn_smarts="[C:1]([C@@:2]1([H:11])[O:3][C@@:4]2([H:12])[C:5]([H:13])([H:14])[C@@:6]12[C:7]([H:15])([H:16])[H:17])([H:8])([H:9])[H:10]>>[C:1]([C@@:2]1([H:11])[O+:3]=[C-:4][C:5]([H:13])([H:14])[C@:6]1([C:7]([H:15])([H:16])[H:17])[H:12])([H:8])([H:9])[H:10]"
C       -1.94913957      -0.02752052       0.33805409
C       -0.55424142      -0.29686341       0.85042680
O       -0.20969278      -1.69100693       0.94302308
C        1.01137648      -1.70376494       0.25271242
C        0.73196628      -0.98947176      -1.05686915
C        0.64064130       0.08326616      -0.02176072
C        1.08778375       1.49725838      -0.26182929
H       -2.14955618       1.04668682       0.34568004
H       -2.08928870      -0.40148028      -0.67695801
H       -2.68121792      -0.51376502       0.98486421
H       -0.44450505       0.12594005       1.85696849
H        1.58223940      -0.50070338       0.73159829
H        1.59854347      -0.92532028      -1.71100768
H       -0.17382370      -1.28911453      -1.57718333
H        0.38428726       2.00449921      -0.92984513
H        1.14631429       2.06190741       0.67202607
H        2.06831309       1.51945302      -0.73990019
17
Frame=4 idx=010876 GeodesicLength=0.22373998954566302 rxn_smarts="[C:1]([C@@:2]1([H:11])[O:3][C@@:4]2([H:12])[C:5]([H:13])([H:14])[C@@:6]12[C:7]([H:15])([H:16])[H:17])([H:8])([H:9])[H:10]>>[C:1]([C@@:2]1([H:11])[O+:3]=[C-:4][C:5]([H:13])([H:14])[C@:6]1([C:7]([H:15])([H:16])[H:17])[H:12])([H:8])([H:9])[H:10]"
C       -1.94619802      -0.02206357       0.34026012
C       -0.55280056      -0.29617199       0.85324231
O       -0.21701334      -1.69536984       0.93925902
C        1.00043240      -1.71118212       0.25074530
C        0.73611982      -0.98971808      -1.05609054
C        0.64644169       0.07982338      -0.01480823
C        1.07922154       1.49678813      -0.26525652
H       -2.14517284       1.05239151       0.35311641
H       -2.08554975      -0.38974163      -0.67741785
H       -2.68030487      -0.51084887       0.98302744
H       -0.44360928       0.12067788       1.86224940
H        1.60212628      -0.51094807       0.73819811
H        1.60882253      -0.93207082      -1.70337840
H       -0.16710054      -1.27955297      -1.58772701
H        0.37170983       1.99483317      -0.93667545
H        1.13334364       2.06828304       0.66497072
H        2.05953146       1.52487087      -0.74371484
17
Frame=5 idx=010876 GeodesicLength=0.2775652819089962 rxn_smarts="[C:1]([C@@:2]1([H:11])[O:3][C@@:4]2([H:12])[C:5]([H:13])([H:14])[C@@:6]12[C:7]([H:15])([H:16])[H:17])([H:8])([H:9])[H:10]>>[C:1]([C@@:2]1([H:11])[O+:3]=[C-:4][C:5]([H:13])([H:14])[C@:6]1([C:7]([H:15])([H:16])[H:17])[H:12])([H:8])([H:9])[H:10]"
C       -1.94331017      -0.01662440       0.34240232
C       -0.55138998      -0.29541871       0.85604753
O       -0.22428667      -1.69951512       0.93551332
C        0.98964025      -1.71815294       0.24873524
C        0.74022780      -0.98991048      -1.05531613
C        0.65213773       0.07655817      -0.00792739
C        1.07059221       1.49624103      -0.26874638
H       -2.14083385       1.05802308       0.36038418
H       -2.08174980      -0.37823721      -0.67767439
H       -2.67944585      -0.50794220       0.98116421
H       -0.44279091       0.11555852       1.86745898
H        1.62192222      -0.52145047       0.74449449
H        1.61878571      -0.93862914      -1.69577071
H       -0.16011731      -1.27008257      -1.59804116
H        0.35925845       1.98510418      -0.94334769
H        1.12054810       2.07436704       0.65805968
H        2.05081207       1.53011123      -0.74743609
17
Frame=6 idx=010876 GeodesicLength=0.33068832231022366 rxn_smarts="[C:1]([C@@:2]1([H:11])[O:3][C@@:4]2([H:12])[C:5]([H:13])([H:14])[C@@:6]12[C:7]([H:15])([H:16])[H:17])([H:8])([H:9])[H:10]>>[C:1]([C@@:2]1([H:11])[O+:3]=[C-:4][C:5]([H:13])([H:14])[C@:6]1([C:7]([H:15])([H:16])[H:17])[H:12])([H:8])([H:9])[H:10]"
C       -1.94050597      -0.01128894       0.34447372
C       -0.55007640      -0.29460117       0.85881965
O       -0.23138520      -1.70342677       0.93180121
C        0.97893398      -1.72467510       0.24664412
C        0.74426747      -0.99006193      -1.05448827
C        0.65770551       0.07351376      -0.00111504
C        1.06212102       1.49554003      -0.27206659
H       -2.13655188       1.06347885       0.36724044
H       -2.07797010      -0.36723162      -0.67770884
H       -2.67860174      -0.50485257       0.97934346
H       -0.44212272       0.11060915       1.87255656
H        1.64170543      -0.53196803       0.75043194
H        1.62832252      -0.94497832      -1.68833430
H       -0.15297156      -1.26076666      -1.60812905
H        0.34712011       1.97544503      -0.94958339
H        1.10790117       2.08013365       0.65121968
H        2.04210836       1.53513063      -0.75110529
17
Frame=7 idx=010876 GeodesicLength=0.3831596585408211 rxn_smarts="[C:1]([C@@:2]1([H:11])[O:3][C@@:4]2([H:12])[C:5]([H:13])([H:14])[C@@:6]12[C:7]([H:15])([H:16])[H:17])([H:8])([H:9])[H:10]>>[C:1]([C@@:2]1([H:11])[O+:3]=[C-:4][C:5]([H:13])([H:14])[C@:6]1([C:7]([H:15])([H:16])[H:17])[H:12])([H:8])([H:9])[H:10]"
C       -1.93769973      -0.00604619       0.34660256
C       -0.54872842      -0.29378363       0.86163041
O       -0.23853563      -1.70709959       0.92800186
C        0.96831249      -1.73085851       0.24455446
C        0.74822666      -0.99018581      -1.05367045
C        0.66319853       0.07059890       0.00567995
C        1.05364397       1.49487419      -0.27536548
H       -2.13233585       1.06888974       0.37406841
H       -2.07418640      -0.35631055      -0.67773949
H       -2.67771799      -0.50175485       0.97757853
H       -0.44153822       0.10569443       1.87757609
H        1.66146042      -0.54266897       0.75617953
H        1.63766964      -0.95122758      -1.68079905
H       -0.14549118      -1.25135959      -1.61811637
H        0.33513022       1.96567722      -0.95570857
H        1.09524672       2.08567502       0.64431485
H        2.03334476       1.53988575      -0.75478724
17
Frame=8 idx=010876 GeodesicLength=0.4350842268600797 rxn_smarts="[C:1]([C@@:2]1([H:11])[O:3][C@@:4]2([H:12])[C:5]([H:13])([H:14])[C@@:6]12[C:7]([H:15])([H:16])[H:17])([H:8])([H:9])[H:10]>>[C:1]([C@@:2]1([H:11])[O+:3]=[C-:4][C:5]([H:13])([H:14])[C@:6]1([C:7]([H:15])([H:16])[H:17])[H:12])([H:8])([H:9])[H:10]"
C       -1.93492238      -0.00077697       0.34871735
C       -0.54743746      -0.29293390       0.86444276
O       -0.24577621      -1.71065298       0.92410424
C        0.95770894      -1.73660048       0.24243495
C        0.75225863      -0.99029458      -1.05279500
C        0.66868394       0.06782133       0.01243740
C        1.04523930       1.49406033      -0.27857990
H       -2.12813631       1.07421965       0.38080824
H       -2.07038817      -0.34545142      -0.67768553
H       -2.67684802      -0.49860237       0.97576456
H       -0.44097992       0.10077276       1.88250367
H        1.68133014      -0.55346361       0.76154825
H        1.64671897      -0.95743696      -1.67322659
H       -0.13774432      -1.24211837      -1.62781616
H        0.32326443       1.95582311      -0.96165287
H        1.08259538       2.09102364       0.63744686
H        2.02443305       1.54461083      -0.75845224
17
Frame=9 idx=010876 GeodesicLength=0.4865716514551163 rxn_smarts="[C:1]([C@@:2]1([H:11])[O:3][C@@:4]2([H:12])[C:5]([H:13])([H:14])[C@@:6]12[C:7]([H:15])([H:16])[H:17])([H:8])([H:9])[H:10]>>[C:1]([C@@:2]1([H:11])[O+:3]=[C-:4][C:5]([H:13])([H:14])[C@:6]1([C:7]([H:15])([H:16])[H:17])[H:12])([H:8])([H:9])[H:10]"
C       -1.93219421       0.00438009       0.35078816
C       -0.54617376      -0.29197288       0.86720367
O       -0.25285079      -1.71389509       0.92034154
C        0.94693881      -1.74183349       0.24004339
C        0.75624377      -0.99033170      -1.05188926
C        0.67405554       0.06526760       0.01912419
C        1.03688414       1.49318557      -0.28172027
H       -2.12401688       1.07941212       0.38718574
H       -2.06657939      -0.33517771      -0.67737773
H       -2.67604187      -0.49542067       0.97401093
H       -0.44054688       0.09610732       1.88733770
H        1.70107579      -0.56439574       0.76668700
H        1.65540730      -0.96341470      -1.66577364
H       -0.12963933      -1.23286393      -1.63727853
H        0.31175487       1.94594232      -0.96715484
H        1.07017770       2.09590863       0.63061030
H        2.01550518       1.54910227      -0.76213835
17
Frame=10 idx=010876 GeodesicLength=0.537193531568904 rxn_smarts="[C:1]([C@@:2]1([H:11])[O:3][C@@:4]2([H:12])[C:5]([H:13])([H:14])[C@@:6]12[C:7]([H:15])([H:16])[H:17])([H:8])([H:9])[H:10]>>[C:1]([C@@:2]1([H:11])[O+:3]=[C-:4][C:5]([H:13])([H:14])[C@:6]1([C:7]([H:15])([H:16])[H:17])[H:12])([H:8])([H:9])[H:10]"
C       -1.92954284       0.00947035       0.35283187
C       -0.54496072      -0.29094602       0.87000172
O       -0.25984164      -1.71690296       0.91658246
C        0.93641732      -1.74654357       0.23765917
C        0.76019705      -0.99035007      -1.05096933
C        0.67926359       0.06289882       0.02567380
C        1.02867258       1.49221695      -0.28470624
H       -2.12000193       1.08445862       0.39324258
H       -2.06282585      -0.32519220      -0.67702609
H       -2.67525032      -0.49223385       0.97233082
H       -0.44027438       0.09154868       1.89194387
H        1.72082171      -0.57534802       0.77140742
H        1.66357981      -0.96918878      -1.65850252
H       -0.12142499      -1.22393183      -1.64636739
H        0.30057166       1.93614262      -0.97231570
H        1.05788228       2.10054591       0.62389786
H        2.00671667       1.55335537      -0.76568428
17
Frame=11 idx=010876 GeodesicLength=0.5873928358576185 rxn_smarts="[C:1]([C@@:2]1([H:11])[O:3][C@@:4]2([H:12])[C:5]([H:13])([H:14])[C@@:6]12[C:7]([H:15])([H:16])[H:17])([H:8])([H:9])[H:10]>>[C:1]([C@@:2]1([H:11])[O+:3]=[C-:4][C:5]([H:13])([H:14])[C@:6]1([C:7]([H:15])([H:16])[H:17])[H:12])([H:8])([H:9])[H:10]"
C       -1.92692548       0.01452346       0.35488267
C       -0.54382490      -0.28989460       0.87274314
O       -0.26681984      -1.71980539       0.91275350
C        0.92603385      -1.75086403       0.23529565
C        0.76413308      -0.99035347      -1.05000031
C        0.68442184       0.06065393       0.03222039
C        1.02045760       1.49116065      -0.28767319
H       -2.11601184       1.08949179       0.39924627
H       -2.05908671      -0.31530292      -0.67658691
H       -2.67447909      -0.48898519       0.97062604
H       -0.44004079       0.08696611       1.89651806
H        1.74062835      -0.58639802       0.77590624
H        1.67156380      -0.97494855      -1.65118209
H       -0.11302812      -1.21499447      -1.65537309
H        0.28948703       1.92627118      -0.97735164
H        1.04560719       2.10501274       0.61717592
H        1.99788403       1.55746678      -0.76920065
17
Frame=12 idx=010876 GeodesicLength=0.6371949774018854 rxn_smarts="[C:1]([C@@:2]1([H:11])[O:3][C@@:4]2([H:12])[C:5]([H:13])([H:14])[C@@:6]12[C:7]([H:15])([H:16])[H:17])([H:8])([H:9])[H:10]>>[C:1]([C@@:2]1([H:11])[O+:3]=[C-:4][C:5]([H:13])([H:14])[C@:6]1([C:7]([H:15])([H:16])[H:17])[H:12])([H:8])([H:9])[H:10]"
C       -1.92432793       0.01956695       0.35696830
C       -0.54270042      -0.28881850       0.87551350
O       -0.27388058      -1.72258560       0.90878734
C        0.91564005      -1.75486519       0.23279968
C        0.76805836      -0.99031421      -1.04901012
C        0.68955492       0.05854581       0.03877850
C        1.01223166       1.49006047      -0.29061400
H       -2.11203803       1.09450649       0.40518221
H       -2.05533886      -0.30558910      -0.67600842
H       -2.67370376      -0.48564131       0.96900049
H       -0.43986825       0.08245080       1.90106441
H        1.76043021      -0.59774530       0.78012767
H        1.67947113      -0.98058868      -1.64378315
H       -0.10426323      -1.20605623      -1.66420185
H        0.27848273       1.91630273      -0.98228637
H        1.03323407       2.10936639       0.61033953
H        1.98901791       1.56140447      -0.77265771
17
Frame=13 idx=010876 GeodesicLength=0.6860361584499791 rxn_smarts="[C:1]([C@@:2]1([H:11])[O:3][C@@:4]2([H:12])[C:5]([H:13])([H:14])[C@@:6]12[C:7]([H:15])([H:16])[H:17])([H:8])([H:9])[H:10]>>[C:1]([C@@:2]1([H:11])[O+:3]=[C-:4][C:5]([H:13])([H:14])[C@:6]1([C:7]([H:15])([H:16])[H:17])[H:12])([H:8])([H:9])[H:10]"
C       -1.92180106       0.02452512       0.35901614
C       -0.54166955      -0.28768347       0.87826243
O       -0.28080310      -1.72517700       0.90491471
C        0.90548746      -1.75827796       0.23033499
C        0.77191262      -0.99023908      -1.04795711
C        0.69458502       0.05662868       0.04530522
C        1.00408822       1.48889195      -0.29347582
H       -2.10813881       1.09942533       0.41087611
H       -2.05165461      -0.29614145      -0.67543207
H       -2.67299590      -0.48229159       0.96736801
H       -0.43986874       0.07812603       1.90551207
H        1.78021011      -0.60933187       0.78385827
H        1.68705422      -0.98605744      -1.63656086
H       -0.09538952      -1.19738428      -1.67271613
H        0.26764245       1.90638119      -0.98692937
H        1.02110480       2.11339643       0.60363928
H        1.98023639       1.56520940      -0.77601584
17
Frame=14 idx=010876 GeodesicLength=0.734466060181086 rxn_smarts="[C:1]([C@@:2]1([H:11])[O:3][C@@:4]2([H:12])[C:5]([H:13])([H:14])[C@@:6]12[C:7]([H:15])([H:16])[H:17])([H:8])([H:9])[H:10]>>[C:1]([C@@:2]1([H:11])[O+:3]=[C-:4][C:5]([H:13])([H:14])[C@:6]1([C:7]([H:15])([H:16])[H:17])[H:12])([H:8])([H:9])[H:10]"
C       -1.91928491       0.02946945       0.36109340
C       -0.54062087      -0.28648717       0.88107616
O       -0.28776792      -1.72763159       0.90097869
C        0.89545401      -1.76138493       0.22792664
C        0.77569366      -0.99015814      -1.04688434
C        0.69955869       0.05484225       0.05180542
C        0.99594540       1.48761545      -0.29630969
H       -2.10425902       1.10430076       0.41648829
H       -2.04796378      -0.28677060      -0.67479431
H       -2.67227267      -0.47887203       0.96571144
H       -0.43995241       0.07375960       1.90987991
H        1.80003413      -0.62114643       0.78727547
H        1.69440969      -0.99144984      -1.62932060
H       -0.08617269      -1.18871888      -1.68105788
H        0.25689156       1.89642327      -0.99143437
H        1.00892260       2.11735095       0.59689282
H        1.97138452       1.56885788      -0.77932705
17
Frame=15 idx=010876 GeodesicLength=0.7820197731367899 rxn_smarts="[C:1]([C@@:2]1([H:11])[O:3][C@@:4]2([H:12])[C:5]([H:13])([H:14])[C@@:6]12[C:7]([H:15])([H:16])[H:17])([H:8])([H:9])[H:10]>>[C:1]([C@@:2]1([H:11])[O+:3]=[C-:4][C:5]([H:13])([H:14])[C@:6]1([C:7]([H:15])([H:16])[H:17])[H:12])([H:8])([H:9])[H:10]"
C       -1.91686745       0.03431604       0.36317147
C       -0.53967539      -0.28526156       0.88386338
O       -0.29469145      -1.72992446       0.89702724
C        0.88571065      -1.76397764       0.22555280
C        0.77941196      -0.99004858      -1.04578163
C        0.70443407       0.05320810       0.05825584
C        0.98786389       1.48628640      -0.29906836
H       -2.10047444       1.10910804       0.42193594
H       -2.04433555      -0.27769891      -0.67405780
H       -2.67160980      -0.47536906       0.96402603
H       -0.44010899       0.06955598       1.91421983
H        1.81981646      -0.63324774       0.79024305
H        1.70149378      -0.99670065      -1.62213799
H       -0.07678155      -1.18017865      -1.68916769
H        0.24638050       1.88646646      -0.99572693
H        0.99682493       2.12110621       0.59019583
H        1.96260838       1.57236000      -0.78255101
17
Frame=16 idx=010876 GeodesicLength=0.8292309085912665 rxn_smarts="[C:1]([C@@:2]1([H:11])[O:3][C@@:4]2([H:12])[C:5]([H:13])([H:14])[C@@:6]12[C:7]([H:15])([H:16])[H:17])([H:8])([H:9])[H:10]>>[C:1]([C@@:2]1([H:11])[O+:3]=[C-:4][C:5]([H:13])([H:14])[C@:6]1([C:7]([H:15])([H:16])[H:17])[H:12])([H:8])([H:9])[H:10]"
C       -1.91447565       0.03915424       0.36525556
C       -0.53875046      -0.28403012       0.88665462
O       -0.30158342      -1.73202161       0.89298587
C        0.87602864      -1.76624990       0.22313522
C        0.78313798      -0.98990454      -1.04465803
C        0.70929001       0.05171987       0.06475413
C        0.97978897       1.48485925      -0.30178700
H       -2.09671429       1.11389968       0.42730458
H       -2.04073389      -0.26873280      -0.67327973
H       -2.67094630      -0.47181936       0.96237527
H       -0.44035881       0.06533356       1.91849243
H        1.83959370      -0.64555340       0.79295067
H        1.70842837      -1.00189345      -1.61489449
H       -0.06718078      -1.17169684      -1.69709935
H        0.23598741       1.87640734      -0.99989401
H        0.98474951       2.12473889       0.58350373
H        1.95373901       1.57578919      -0.78579947
