15
Frame=0 idx=009117 GeodesicLength=0.0 rxn_smarts="[C:1]([C:2](=[O:3])[C:4]1([O:5][H:11])[C:6]([H:12])([H:13])[C:7]1([H:14])[H:15])([H:8])([H:9])[H:10]>>[C:1]([C@:2]1([O:3][H:11])[C:4](=[O:5])[C:6]([H:12])([H:13])[C:7]1([H:14])[H:15])([H:8])([H:9])[H:10]"
C        1.47001712       0.20723639      -1.02967813
C        0.84314395      -0.37531384       0.18118444
O        1.60166082      -0.78477458       1.13708083
C       -0.52353633      -0.70284503       0.47607832
O       -0.65435269      -1.35642642       1.57506678
C       -1.63286041      -0.13035470      -0.33329365
C       -0.96603238       0.97008354       0.40620313
H        2.10798323      -0.55647708      -1.47883878
H        0.73331902       0.52345829      -1.76427427
H        2.10745317       1.05021586      -0.76040313
H        0.82507265      -1.22826521       1.72771616
H       -2.60211435      -0.45881344       0.01909662
H       -1.53638117      -0.12456196      -1.41312484
H       -0.44314814       1.74581340      -0.13512658
H       -1.33022451       1.22102478       1.39231313
15
Frame=1 idx=009117 GeodesicLength=0.0633960101839778 rxn_smarts="[C:1]([C:2](=[O:3])[C:4]1([O:5][H:11])[C:6]([H:12])([H:13])[C:7]1([H:14])[H:15])([H:8])([H:9])[H:10]>>[C:1]([C@:2]1([O:3][H:11])[C:4](=[O:5])[C:6]([H:12])([H:13])[C:7]1([H:14])[H:15])([H:8])([H:9])[H:10]"
C        1.46794440       0.20565351      -1.03102207
C        0.84208935      -0.35321127       0.19247904
O        1.60321768      -0.76719087       1.14633726
C       -0.52488081      -0.70988093       0.47236504
O       -0.65365937      -1.37988721       1.56214441
C       -1.63178937      -0.12656899      -0.33323309
C       -0.95557538       0.96865658       0.40972666
H        2.10993458      -0.56282517      -1.46571521
H        0.73188030       0.50727529      -1.77256105
H        2.09895316       1.05773838      -0.77510414
H        0.82314277      -1.24445758       1.73081039
H       -2.60391886      -0.44837339       0.01791870
H       -1.53588008      -0.12144890      -1.41317644
H       -0.44954897       1.75293986      -0.13578366
H       -1.32190939       1.22158071       1.39481416
15
Frame=2 idx=009117 GeodesicLength=0.12682046390016113 rxn_smarts="[C:1]([C:2](=[O:3])[C:4]1([O:5][H:11])[C:6]([H:12])([H:13])[C:7]1([H:14])[H:15])([H:8])([H:9])[H:10]>>[C:1]([C@:2]1([O:3][H:11])[C:4](=[O:5])[C:6]([H:12])([H:13])[C:7]1([H:14])[H:15])([H:8])([H:9])[H:10]"
C        1.46585317       0.20382888      -1.03208185
C        0.84074607      -0.33185525       0.20325769
O        1.60449519      -0.74953313       1.15546567
C       -0.52609153      -0.71658504       0.46848961
O       -0.65247847      -1.40319666       1.54864467
C       -1.63079614      -0.12271692      -0.33309060
C       -0.94524262       0.96740842       0.41307729
H        2.11229080      -0.56875538      -1.45228982
H        0.73062294       0.49060121      -1.78051150
H        2.08999767       1.06496669      -0.78945321
H        0.82141580      -1.26025555       1.73358396
H       -2.60561353      -0.43798916       0.01708497
H       -1.53568654      -0.11824651      -1.41316829
H       -0.45593902       1.75999915      -0.13620044
H       -1.31357379       1.22232923       1.39719184
15
Frame=3 idx=009117 GeodesicLength=0.19026062992073878 rxn_smarts="[C:1]([C:2](=[O:3])[C:4]1([O:5][H:11])[C:6]([H:12])([H:13])[C:7]1([H:14])[H:15])([H:8])([H:9])[H:10]>>[C:1]([C@:2]1([O:3][H:11])[C:4](=[O:5])[C:6]([H:12])([H:13])[C:7]1([H:14])[H:15])([H:8])([H:9])[H:10]"
C        1.46374043       0.20177888      -1.03289156
C        0.83913343      -0.31124718       0.21351095
O        1.60546062      -0.73176351       1.16450484
C       -0.52719272      -0.72298412       0.46447037
O       -0.65082019      -1.42637712       1.53456479
C       -1.62987352      -0.11879225      -0.33286832
C       -0.93500477       0.96632608       0.41626388
H        2.11508713      -0.57422872      -1.43856605
H        0.72952468       0.47338014      -1.78815136
H        2.08052867       1.07194145      -0.80347849
H        0.81985211      -1.27570286       1.73607925
H       -2.60720536      -0.42762813       0.01658400
H       -1.53578185      -0.11494563      -1.41310119
H       -0.46227858       1.76697768      -0.13637965
H       -1.30517007       1.22326529       1.39945854
15
Frame=4 idx=009117 GeodesicLength=0.25372132966588146 rxn_smarts="[C:1]([C:2](=[O:3])[C:4]1([O:5][H:11])[C:6]([H:12])([H:13])[C:7]1([H:14])[H:15])([H:8])([H:9])[H:10]>>[C:1]([C@:2]1([O:3][H:11])[C:4](=[O:5])[C:6]([H:12])([H:13])[C:7]1([H:14])[H:15])([H:8])([H:9])[H:10]"
C        1.46162722       0.19953535      -1.03347662
C        0.83726960      -0.29137929       0.22324674
O        1.60614629      -0.71395985       1.17342298
C       -0.52821873      -0.72909322       0.46034240
O       -0.64870575      -1.44940157       1.51994453
C       -1.62902717      -0.11480912      -0.33256819
C       -0.92487388       0.96539943       0.41928963
H        2.11827024      -0.57925065      -1.42463316
H        0.72860528       0.45571176      -1.79546320
H        2.07063446       1.07864693      -0.81720144
H        0.81841489      -1.29076576       1.73839324
H       -2.60870577      -0.41732055       0.01639176
H       -1.53614326      -0.11157227      -1.41297370
H       -0.46856161       1.77387124      -0.13632422
H       -1.29673180       1.22438757       1.40160924
15
Frame=5 idx=009117 GeodesicLength=0.31721226033880334 rxn_smarts="[C:1]([C:2](=[O:3])[C:4]1([O:5][H:11])[C:6]([H:12])([H:13])[C:7]1([H:14])[H:15])([H:8])([H:9])[H:10]>>[C:1]([C@:2]1([O:3][H:11])[C:4](=[O:5])[C:6]([H:12])([H:13])[C:7]1([H:14])[H:15])([H:8])([H:9])[H:10]"
C        1.45952031       0.19711570      -1.03386509
C        0.83518438      -0.27222452       0.23247702
O        1.60654768      -0.69613119       1.18224102
C       -0.52918831      -0.73493221       0.45612527
O       -0.64614399      -1.47229367       1.50478364
C       -1.62825873      -0.11076303      -0.33218969
C       -0.91483744       0.96462654       0.42215755
H        2.12187455      -0.58379174      -1.41048777
H        0.72785460       0.43755486      -1.80246611
H        2.06027919       1.08511988      -0.83066280
H        0.81707145      -1.30550471       1.74056813
H       -2.61013222      -0.40704212       0.01650588
H       -1.53676105      -0.10812341      -1.41278452
H       -0.47477261       1.78068710      -0.13605065
H       -1.28823781       1.22570253       1.40364814
15
Frame=6 idx=009117 GeodesicLength=0.38075086204135133 rxn_smarts="[C:1]([C:2](=[O:3])[C:4]1([O:5][H:11])[C:6]([H:12])([H:13])[C:7]1([H:14])[H:15])([H:8])([H:9])[H:10]>>[C:1]([C@:2]1([O:3][H:11])[C:4](=[O:5])[C:6]([H:12])([H:13])[C:7]1([H:14])[H:15])([H:8])([H:9])[H:10]"
C        1.45743039       0.19453411      -1.03408045
C        0.83289438      -0.25373281       0.24123634
O        1.60666916      -0.67827060       1.19098711
C       -0.53012123      -0.74050909       0.45183849
O       -0.64315383      -1.49506939       1.48907323
C       -1.62756616      -0.10665272      -0.33173032
C       -0.90489324       0.96400759       0.42487794
H        2.12591991      -0.58784763      -1.39613683
H        0.72727400       0.41887413      -1.80917079
H        2.04945505       1.09139057      -0.84392066
H        0.81579544      -1.31999262       1.74261599
H       -2.61149064      -0.39677765       0.01691989
H       -1.53762161      -0.10460165      -1.41252889
H       -0.48090951       1.78743295      -0.13557059
H       -1.27968211       1.22721482       1.40558953
15
Frame=7 idx=009117 GeodesicLength=0.44437798453494415 rxn_smarts="[C:1]([C:2](=[O:3])[C:4]1([O:5][H:11])[C:6]([H:12])([H:13])[C:7]1([H:14])[H:15])([H:8])([H:9])[H:10]>>[C:1]([C@:2]1([O:3][H:11])[C:4](=[O:5])[C:6]([H:12])([H:13])[C:7]1([H:14])[H:15])([H:8])([H:9])[H:10]"
C        1.45535531       0.19180934      -1.03413383
C        0.83043191      -0.23583322       0.24956216
O        1.60651404      -0.66036849       1.19968265
C       -0.53102548      -0.74581635       0.44753328
O       -0.63972116      -1.51769660       1.47283164
C       -1.62693273      -0.10248063      -0.33119506
C       -0.89504649       0.96354654       0.42745759
H        2.13031597      -0.59144031      -1.38155696
H        0.72685896       0.39968988      -1.81557231
H        2.03819625       1.09746094      -0.85704018
H        0.81458197      -1.33436486       1.74451593
H       -2.61277644      -0.38653076       0.01759904
H       -1.53867421      -0.10101590      -1.41220982
H       -0.48699184       1.79411327      -0.13489965
H       -1.27108607       1.22892715       1.40742552
15
Frame=8 idx=009117 GeodesicLength=0.5080038751530461 rxn_smarts="[C:1]([C:2](=[O:3])[C:4]1([O:5][H:11])[C:6]([H:12])([H:13])[C:7]1([H:14])[H:15])([H:8])([H:9])[H:10]>>[C:1]([C@:2]1([O:3][H:11])[C:4](=[O:5])[C:6]([H:12])([H:13])[C:7]1([H:14])[H:15])([H:8])([H:9])[H:10]"
C        1.45329842       0.18895040      -1.03403569
C        0.82780462      -0.21852571       0.25746028
O        1.60610714      -0.64252086       1.20827660
C       -0.53191269      -0.75087911       0.44318840
O       -0.63585867      -1.54020960       1.45603586
C       -1.62636437      -0.09824578      -0.33058462
C       -0.88529075       0.96323476       0.42989341
H        2.13511656      -0.59452877      -1.36681836
H        0.72660542       0.38000267      -1.82164186
H        2.02647718       1.10331531      -0.87001669
H        0.81337723      -1.34850015       1.74639367
H       -2.61399432      -0.37629951       0.01854918
H       -1.53992788      -0.09736343      -1.41182241
H       -0.49299614       1.80073205      -0.13403572
H       -1.26244176       1.23083772       1.40915795
15
Frame=9 idx=009117 GeodesicLength=0.5716936194334719 rxn_smarts="[C:1]([C:2](=[O:3])[C:4]1([O:5][H:11])[C:6]([H:12])([H:13])[C:7]1([H:14])[H:15])([H:8])([H:9])[H:10]>>[C:1]([C@:2]1([O:3][H:11])[C:4](=[O:5])[C:6]([H:12])([H:13])[C:7]1([H:14])[H:15])([H:8])([H:9])[H:10]"
C        1.45126927       0.18597428      -1.03380664
C        0.82503435      -0.20174336       0.26498149
O        1.60546028      -0.62471155       1.21680011
C       -0.53280042      -0.75569383       0.43884501
O       -0.63156880      -1.56260456       1.43868710
C       -1.62585621      -0.09395099      -0.32989922
C       -0.87563337       0.96307858       0.43219827
H        2.14028429      -0.59712504      -1.35191635
H        0.72651964       0.35980589      -1.82738706
H        2.01433074       1.10896977      -0.88292425
H        0.81216546      -1.36251710       1.74823410
H       -2.61515264      -0.36608024       0.01975169
H       -1.54135184      -0.09366037      -1.41136988
H       -0.49893454       1.80730352      -0.13299115
H       -1.25376621       1.23295501       1.41079677
15
Frame=10 idx=009117 GeodesicLength=0.6354601909727159 rxn_smarts="[C:1]([C:2](=[O:3])[C:4]1([O:5][H:11])[C:6]([H:12])([H:13])[C:7]1([H:14])[H:15])([H:8])([H:9])[H:10]>>[C:1]([C@:2]1([O:3][H:11])[C:4](=[O:5])[C:6]([H:12])([H:13])[C:7]1([H:14])[H:15])([H:8])([H:9])[H:10]"
C        1.44926836       0.18287963      -1.03346096
C        0.82212608      -0.18543735       0.27215591
O        1.60457721      -0.60693465       1.22526920
C       -0.53369510      -0.76026183       0.43451821
O       -0.62686148      -1.58489505       1.42074664
C       -1.62540579      -0.08958834      -0.32913523
C       -0.86607047       0.96308653       0.43438630
H        2.14585451      -0.59921213      -1.33683718
H        0.72660209       0.33902819      -1.83281163
H        2.00171758       1.11444385      -0.89581657
H        0.81093180      -1.37647453       1.75004343
H       -2.61625663      -0.35586503       0.02119821
H       -1.54293114      -0.08989148      -1.41084355
H       -0.50480507       1.81383711      -0.13177037
H       -1.24505196       1.23528508       1.41235758
15
Frame=11 idx=009117 GeodesicLength=0.6993593845197874 rxn_smarts="[C:1]([C:2](=[O:3])[C:4]1([O:5][H:11])[C:6]([H:12])([H:13])[C:7]1([H:14])[H:15])([H:8])([H:9])[H:10]>>[C:1]([C@:2]1([O:3][H:11])[C:4](=[O:5])[C:6]([H:12])([H:13])[C:7]1([H:14])[H:15])([H:8])([H:9])[H:10]"
C        1.44727085       0.17967564      -1.03298716
C        0.81914629      -0.16955707       0.27899233
O        1.60347337      -0.58917950       1.23368002
C       -0.53458242      -0.76458280       0.43025269
O       -0.62170655      -1.60704086       1.40224355
C       -1.62497777      -0.08516123      -0.32830156
C       -0.85658768       0.96325440       0.43645667
H        2.15170440      -0.60081093      -1.32148861
H        0.72682757       0.31769550      -1.83791097
H        1.98860644       1.11974047      -0.90873832
H        0.80963944      -1.39048188       1.75176518
H       -2.61728277      -0.34563710       0.02285039
H       -1.54460489      -0.08606550      -1.41025148
H       -0.51062188       1.82033141      -0.13039046
H       -1.23630440       1.23781945       1.41382772
15
Frame=12 idx=009117 GeodesicLength=0.7632867164792179 rxn_smarts="[C:1]([C:2](=[O:3])[C:4]1([O:5][H:11])[C:6]([H:12])([H:13])[C:7]1([H:14])[H:15])([H:8])([H:9])[H:10]>>[C:1]([C@:2]1([O:3][H:11])[C:4](=[O:5])[C:6]([H:12])([H:13])[C:7]1([H:14])[H:15])([H:8])([H:9])[H:10]"
C        1.44530626       0.17637194      -1.03240393
C        0.81606130      -0.15407867       0.28554433
O        1.60216785      -0.57148576       1.24203505
C       -0.53549411      -0.76865552       0.42604488
O       -0.61613503      -1.62904295       1.38312931
C       -1.62458888      -0.08067863      -0.32738727
C       -0.84721398       0.96358336       0.43842150
H        2.15786518      -0.60189341      -1.30600784
H        0.72724502       0.29581387      -1.84264431
H        1.97505498       1.12481914      -0.92170774
H        0.80828196      -1.40450109       1.75346651
H       -2.61823180      -0.33541915       0.02472380
H       -1.54638851      -0.08220601      -1.40957896
H       -0.51637386       1.82679968      -0.12885430
H       -1.22755639       1.24057321       1.41521897
15
Frame=13 idx=009117 GeodesicLength=0.8272799046974582 rxn_smarts="[C:1]([C:2](=[O:3])[C:4]1([O:5][H:11])[C:6]([H:12])([H:13])[C:7]1([H:14])[H:15])([H:8])([H:9])[H:10]>>[C:1]([C@:2]1([O:3][H:11])[C:4](=[O:5])[C:6]([H:12])([H:13])[C:7]1([H:14])[H:15])([H:8])([H:9])[H:10]"
C        1.44336324       0.17298208      -1.03171235
C        0.81289299      -0.13896825       0.29182139
O        1.60068906      -0.55388206       1.25030829
C       -0.53642216      -0.77249403       0.42192044
O       -0.61011227      -1.65089690       1.36343320
C       -1.62423499      -0.07614290      -0.32640554
C       -0.83794149       0.96407824       0.44027470
H        2.16428350      -0.60248820      -1.29041274
H        0.72782200       0.27346325      -1.84697803
H        1.96110836       1.12964735      -0.93473795
H        0.80683306      -1.41855609       1.75519811
H       -2.61912531      -0.32522770       0.02678839
H       -1.54825304      -0.07831346      -1.40884163
H       -0.52207800       1.83324852      -0.12717083
H       -1.21882494       1.24355015       1.41651456
15
Frame=14 idx=009117 GeodesicLength=0.8913170996291978 rxn_smarts="[C:1]([C:2](=[O:3])[C:4]1([O:5][H:11])[C:6]([H:12])([H:13])[C:7]1([H:14])[H:15])([H:8])([H:9])[H:10]>>[C:1]([C@:2]1([O:3][H:11])[C:4](=[O:5])[C:6]([H:12])([H:13])[C:7]1([H:14])[H:15])([H:8])([H:9])[H:10]"
C        1.44143473       0.16951846      -1.03091766
C        0.80965622      -0.12420164       0.29784102
O        1.59906072      -0.53638062       1.25848355
C       -0.53736851      -0.77610562       0.41790188
O       -0.60364151      -1.67256847       1.34316351
C       -1.62390138      -0.07156688      -0.32535928
C       -0.82877033       0.96473196       0.44202141
H        2.17088347      -0.60260750      -1.27475201
H        0.72855646       0.25071766      -1.85089121
H        1.94680551       1.13419058      -0.94782758
H        0.80526096      -1.43265706       1.75699191
H       -2.61995012      -0.31507987       0.02902055
H       -1.55016657      -0.07441451      -1.40803890
H       -0.52773205       1.83967417      -0.12534725
H       -1.21012762       1.24674934       1.41771006
15
Frame=15 idx=009117 GeodesicLength=0.9553923043680219 rxn_smarts="[C:1]([C:2](=[O:3])[C:4]1([O:5][H:11])[C:6]([H:12])([H:13])[C:7]1([H:14])[H:15])([H:8])([H:9])[H:10]>>[C:1]([C@:2]1([O:3][H:11])[C:4](=[O:5])[C:6]([H:12])([H:13])[C:7]1([H:14])[H:15])([H:8])([H:9])[H:10]"
C        1.43951785       0.16599487      -1.03002575
C        0.80636521      -0.10975181       0.30362148
O        1.59731322      -0.51898898       1.26654758
C       -0.53833548      -0.77949772       0.41401476
O       -0.59672319      -1.69401963       1.32233984
C       -1.62357840      -0.06696419      -0.32425141
C       -0.81970502       0.96553979       0.44366567
H        2.17759111      -0.60227576      -1.25907419
H        0.72944608       0.22766137      -1.85436616
H        1.93220259       1.13841773      -0.96097462
H        0.80353847      -1.44683059       1.75887132
H       -2.62070192      -0.30499425       0.03139738
H       -1.55210178      -0.07053690      -1.40717205
H       -0.53334048       1.84607481      -0.12339379
H       -1.20148825       1.25017126       1.41879996
15
Frame=16 idx=009117 GeodesicLength=1.0194944757124706 rxn_smarts="[C:1]([C:2](=[O:3])[C:4]1([O:5][H:11])[C:6]([H:12])([H:13])[C:7]1([H:14])[H:15])([H:8])([H:9])[H:10]>>[C:1]([C@:2]1([O:3][H:11])[C:4](=[O:5])[C:6]([H:12])([H:13])[C:7]1([H:14])[H:15])([H:8])([H:9])[H:10]"
C        1.43760854       0.16242492      -1.02904264
C        0.80303101      -0.09559377       0.30917993
O        1.59547460      -0.50171064       1.27448855
C       -0.53932272      -0.78267958       0.41028233
O       -0.58935707      -1.71521371       1.30098468
C       -1.62325613      -0.06234861      -0.32308527
C       -0.81074801       0.96649663       0.44521068
H        2.18433705      -0.60152334      -1.24342995
H        0.73048270       0.20438234      -1.85738855
H        1.91735550       1.14230100      -0.97416938
H        0.80163857      -1.46110162       1.76085975
H       -2.62137757      -0.29498870       0.03389644
H       -1.55403272      -0.06670810      -1.40624322
H       -0.53890739       1.85244734      -0.12132200
H       -1.19292638       1.25381584       1.41977866
