11
Frame=0 idx=002420 GeodesicLength=0.0 rxn_smarts="[C:1]1([H:6])([H:7])[C@@:2]2([H:8])[C:3]([H:9])([H:10])[O:4][C@@:5]12[H:11]>>[C:1]([C@@:2]1([H:8])[C:3]([H:9])([H:10])[O+:4]=[C-:5]1)([H:6])([H:7])[H:11]"
C       -1.16917087      -0.33973661      -0.07727598
C        0.01200610       0.05419613       0.72565560
C        1.29815993      -0.20426308      -0.03618255
O        0.89000434       0.75357171      -1.03638586
C       -0.16512452       1.22636843      -0.25167801
H       -2.12175345      -0.32485768       0.44002432
H       -1.04429132      -1.07232868      -0.86627241
H       -0.06158631       0.12293044       1.80249541
H        1.45925640      -1.20319804      -0.44800262
H        2.19805796       0.14223054       0.47347266
H       -1.29555824       0.84508686      -0.72585053
11
Frame=1 idx=002420 GeodesicLength=0.0481393579652301 rxn_smarts="[C:1]1([H:6])([H:7])[C@@:2]2([H:8])[C:3]([H:9])([H:10])[O:4][C@@:5]12[H:11]>>[C:1]([C@@:2]1([H:8])[C:3]([H:9])([H:10])[O+:4]=[C-:5]1)([H:6])([H:7])[H:11]"
C       -1.17239306      -0.33930991      -0.07920580
C        0.01208509       0.05232325       0.72267133
C        1.30090422      -0.20317765      -0.03580650
O        0.90161907       0.76663987      -1.02837435
C       -0.16380520       1.22432111      -0.25222077
H       -2.12153354      -0.32226694       0.44457434
H       -1.05110271      -1.08727022      -0.85443003
H       -0.06068522       0.12535556       1.79938287
H        1.45994789      -1.19744374      -0.45943762
H        2.20053834       0.13355503       0.48091324
H       -1.30557487       0.84727363      -0.73806671
11
Frame=2 idx=002420 GeodesicLength=0.09626903981147494 rxn_smarts="[C:1]1([H:6])([H:7])[C@@:2]2([H:8])[C:3]([H:9])([H:10])[O:4][C@@:5]12[H:11]>>[C:1]([C@@:2]1([H:8])[C:3]([H:9])([H:10])[O+:4]=[C-:5]1)([H:6])([H:7])[H:11]"
C       -1.17559688      -0.33891817      -0.08120764
C        0.01217890       0.05043873       0.71962897
C        1.30366189      -0.20206964      -0.03548507
O        0.91343402       0.78006828      -1.01987786
C       -0.16249370       1.22224182      -0.25285473
H       -2.12126260      -0.31948508       0.44901247
H       -1.05808265      -1.10245543      -0.84191589
H       -0.05979295       0.12773317       1.79619830
H        1.46062973      -1.19137955      -0.47120916
H        2.20296448       0.12456211       0.48835108
H       -1.31564025       0.84926377      -0.75064047
11
Frame=3 idx=002420 GeodesicLength=0.14438036967630286 rxn_smarts="[C:1]1([H:6])([H:7])[C@@:2]2([H:8])[C:3]([H:9])([H:10])[O:4][C@@:5]12[H:11]>>[C:1]([C@@:2]1([H:8])[C:3]([H:9])([H:10])[O+:4]=[C-:5]1)([H:6])([H:7])[H:11]"
C       -1.17877705      -0.33857049      -0.08328692
C        0.01228854       0.04854154       0.71652714
C        1.30643364      -0.20093966      -0.03522084
O        0.92544533       0.79385417      -1.01087058
C       -0.16118342       1.22012548      -0.25358757
H       -2.12093717      -0.31651264       0.45332770
H       -1.06523673      -1.11785769      -0.82871151
H       -0.05891110       0.13006227       1.79294021
H        1.46130190      -1.18499429      -0.48331202
H        2.20533459       0.11524655       0.49576864
H       -1.32575852       0.85104478      -0.76357426
11
Frame=4 idx=002420 GeodesicLength=0.19246409788212243 rxn_smarts="[C:1]1([H:6])([H:7])[C@@:2]2([H:8])[C:3]([H:9])([H:10])[O:4][C@@:5]12[H:11]>>[C:1]([C@@:2]1([H:8])[C:3]([H:9])([H:10])[O+:4]=[C-:5]1)([H:6])([H:7])[H:11]"
C       -1.18192689      -0.33827678      -0.08545065
C        0.01241554       0.04663026       0.71336353
C        1.30922167      -0.19978898      -0.03501493
O        0.93764564       0.80799081      -1.00132908
C       -0.15986631       1.21796629      -0.25442947
H       -2.12055275      -0.31335370       0.45750948
H       -1.07257491      -1.13344438      -0.81480355
H       -0.05804145       0.13234211       1.78960580
H        1.46196827      -1.17827942      -0.49573479
H        2.20764827       0.10560616       0.50314846
H       -1.33593707       0.85260762      -0.77686480
11
Frame=5 idx=002420 GeodesicLength=0.24051204073594984 rxn_smarts="[C:1]1([H:6])([H:7])[C@@:2]2([H:8])[C:3]([H:9])([H:10])[O:4][C@@:5]12[H:11]>>[C:1]([C@@:2]1([H:8])[C:3]([H:9])([H:10])[O+:4]=[C-:5]1)([H:6])([H:7])[H:11]"
C       -1.18503912      -0.33804919      -0.08770683
C        0.01256210       0.04470357       0.71013579
C        1.31203136      -0.19861987      -0.03486684
O        0.95001817       0.82246968      -0.99123159
C       -0.15853176       1.21575582      -0.25539283
H       -2.12010350      -0.31001494       0.46154694
H       -1.08011751      -1.14917628      -0.80018513
H       -0.05718627       0.13457509       1.78619285
H        1.46264161      -1.17123048      -0.50846325
H        2.20990905       0.09564136       0.51047588
H       -1.34618413       0.85394523      -0.79050498
11
Frame=6 idx=002420 GeodesicLength=0.2885887928155518 rxn_smarts="[C:1]1([H:6])([H:7])[C@@:2]2([H:8])[C:3]([H:9])([H:10])[O:4][C@@:5]12[H:11]>>[C:1]([C@@:2]1([H:8])[C:3]([H:9])([H:10])[O+:4]=[C-:5]1)([H:6])([H:7])[H:11]"
C       -1.18812098      -0.33790068      -0.09007366
C        0.01273133       0.04275049       0.70684504
C        1.31487424      -0.19742717      -0.03477966
O        0.96254317       0.83723914      -0.98053173
C       -0.15716249       1.21350058      -0.25648257
H       -2.11958872      -0.30649287       0.46544419
H       -1.08789865      -1.16503576      -0.78485467
H       -0.05634404       0.13673778       1.78270813
H        1.46334981      -1.16381031      -0.52145959
H        2.21212687       0.08536349       0.51770559
H       -1.35651052       0.85507530      -0.80452109
11
Frame=7 idx=002420 GeodesicLength=0.336464264071766 rxn_smarts="[C:1]1([H:6])([H:7])[C@@:2]2([H:8])[C:3]([H:9])([H:10])[O:4][C@@:5]12[H:11]>>[C:1]([C@@:2]1([H:8])[C:3]([H:9])([H:10])[O+:4]=[C-:5]1)([H:6])([H:7])[H:11]"
C       -1.19116428      -0.33779284      -0.09247519
C        0.01291485       0.04078856       0.70350441
C        1.31771094      -0.19622080      -0.03476424
O        0.97524157       0.85230435      -0.96926343
C       -0.15577669       1.21117222      -0.25768952
H       -2.11901097      -0.30278730       0.46919135
H       -1.09571230      -1.18091589      -0.76889210
H       -0.05550709       0.13886874       1.77915243
H        1.46397101      -1.15609852      -0.53474888
H        2.21424607       0.07479094       0.52483886
H       -1.36691310       0.85589055      -0.81885369
11
Frame=8 idx=002420 GeodesicLength=0.3843590397399141 rxn_smarts="[C:1]1([H:6])([H:7])[C@@:2]2([H:8])[C:3]([H:9])([H:10])[O:4][C@@:5]12[H:11]>>[C:1]([C@@:2]1([H:8])[C:3]([H:9])([H:10])[O+:4]=[C-:5]1)([H:6])([H:7])[H:11]"
C       -1.19416381      -0.33778127      -0.09497997
C        0.01312770       0.03880090       0.70010548
C        1.32058823      -0.19499089      -0.03480676
O        0.98805006       0.86766944      -0.95735320
C       -0.15433273       1.20877725      -0.25903887
H       -2.11836162      -0.29889890       0.47277611
H       -1.10379357      -1.19685735      -0.75221104
H       -0.05468087       0.14094463       1.77552894
H        1.46462698      -1.14800401      -0.54831261
H        2.21633443       0.06389329       0.53186481
H       -1.37739479       0.85644691      -0.83357291
11
Frame=9 idx=002420 GeodesicLength=0.4322122135724331 rxn_smarts="[C:1]1([H:6])([H:7])[C@@:2]2([H:8])[C:3]([H:9])([H:10])[O:4][C@@:5]12[H:11]>>[C:1]([C@@:2]1([H:8])[C:3]([H:9])([H:10])[O+:4]=[C-:5]1)([H:6])([H:7])[H:11]"
C       -1.19711664      -0.33787250      -0.09759401
C        0.01336116       0.03678573       0.69663709
C        1.32349355      -0.19374366      -0.03492177
O        1.00102816       0.88333935      -0.94475001
C       -0.15285386       1.20631236      -0.26055006
H       -2.11764565      -0.29480100       0.47619338
H       -1.11207577      -1.21283172      -0.73472929
H       -0.05387700       0.14296396       1.77182286
H        1.46530705      -1.13950085      -0.56220430
H        2.21835517       0.05263989       0.53877488
H       -1.38797616       0.85670845      -0.84867876
11
Frame=10 idx=002420 GeodesicLength=0.48004411965627425 rxn_smarts="[C:1]1([H:6])([H:7])[C@@:2]2([H:8])[C:3]([H:9])([H:10])[O:4][C@@:5]12[H:11]>>[C:1]([C@@:2]1([H:8])[C:3]([H:9])([H:10])[O+:4]=[C-:5]1)([H:6])([H:7])[H:11]"
C       -1.20001449      -0.33808889      -0.10030599
C        0.01362339       0.03474492       0.69310161
C        1.32642398      -0.19247698      -0.03511033
O        1.01413889       0.89935528      -0.93137625
C       -0.15132839       1.20374517      -0.26223161
H       -2.11684671      -0.29047223       0.47941743
H       -1.12058738      -1.22881712      -0.71641169
H       -0.05308259       0.14495478       1.76802985
H        1.46599626      -1.13053934      -0.57645643
H        2.22031365       0.04097900       0.54556033
H       -1.39863661       0.85661540      -0.86421691
11
Frame=11 idx=002420 GeodesicLength=0.5278064641083484 rxn_smarts="[C:1]1([H:6])([H:7])[C@@:2]2([H:8])[C:3]([H:9])([H:10])[O:4][C@@:5]12[H:11]>>[C:1]([C@@:2]1([H:8])[C:3]([H:9])([H:10])[O+:4]=[C-:5]1)([H:6])([H:7])[H:11]"
C       -1.20286144      -0.33841324      -0.10309632
C        0.01391370       0.03267456       0.68950998
C        1.32938368      -0.19118999      -0.03537478
O        1.02736356       0.91563124      -0.91725967
C       -0.14974150       1.20108856      -0.26408524
H       -2.11597982      -0.28592563       0.48247427
H       -1.12929048      -1.24474047      -0.69736015
H       -0.05229435       0.14690366       1.76416926
H        1.46669734      -1.12114591      -0.59101686
H        2.22220259       0.02896465       0.55219720
H       -1.40939328       0.85615257      -0.88015770
11
Frame=12 idx=002420 GeodesicLength=0.5755400498413966 rxn_smarts="[C:1]1([H:6])([H:7])[C@@:2]2([H:8])[C:3]([H:9])([H:10])[O:4][C@@:5]12[H:11]>>[C:1]([C@@:2]1([H:8])[C:3]([H:9])([H:10])[O+:4]=[C-:5]1)([H:6])([H:7])[H:11]"
C       -1.20565280      -0.33887499      -0.10598163
C        0.01423467       0.03056691       0.68585477
C        1.33238061      -0.18988446      -0.03571713
O        1.04068716       0.93219024      -0.90232366
C       -0.14808828       1.19832163      -0.26613168
H       -2.11503462      -0.28113634       0.48533666
H       -1.13821674      -1.26058054      -0.67748682
H       -0.05151797       0.14881460       1.76022863
H        1.46743502      -1.11127461      -0.60591865
H        2.22402727       0.01655707       0.55867036
H       -1.42025431       0.85530049      -0.89653086
11
Frame=13 idx=002420 GeodesicLength=0.6232471670653245 rxn_smarts="[C:1]1([H:6])([H:7])[C@@:2]2([H:8])[C:3]([H:9])([H:10])[O:4][C@@:5]12[H:11]>>[C:1]([C@@:2]1([H:8])[C:3]([H:9])([H:10])[O+:4]=[C-:5]1)([H:6])([H:7])[H:11]"
C       -1.20838429      -0.33948517      -0.10895368
C        0.01458893       0.02841888       0.68213930
C        1.33541253      -0.18855894      -0.03614313
O        1.05410039       0.94903565      -0.88650899
C       -0.14636131       1.19543484      -0.26838032
H       -2.11401157      -0.27608102       0.48799725
H       -1.14737199      -1.27630361      -0.65676292
H       -0.05074860       0.15069043       1.75621108
H        1.46820408      -1.10088331      -0.62119042
H        2.22578228       0.00373103       0.56496417
H       -1.43121043       0.85400121      -0.91337234
11
Frame=14 idx=002420 GeodesicLength=0.670936502800191 rxn_smarts="[C:1]1([H:6])([H:7])[C@@:2]2([H:8])[C:3]([H:9])([H:10])[O:4][C@@:5]12[H:11]>>[C:1]([C@@:2]1([H:8])[C:3]([H:9])([H:10])[O+:4]=[C-:5]1)([H:6])([H:7])[H:11]"
C       -1.21105842      -0.34025350      -0.11200589
C        0.01497919       0.02622549       0.67836360
C        1.33848551      -0.18721081      -0.03665986
O        1.06757908       0.96615993      -0.86974798
C       -0.14455548       1.19241472      -0.27084407
H       -2.11291580      -0.27072798       0.49044769
H       -1.15676489      -1.29188487      -0.63515897
H       -0.04998436       0.15252954       1.75211473
H        1.46902069      -1.08992681      -0.63684973
H        2.22747129      -0.00953950       0.57105435
H       -1.44225681       0.85221379      -0.93071388
11
Frame=15 idx=002420 GeodesicLength=0.7186105241877881 rxn_smarts="[C:1]1([H:6])([H:7])[C@@:2]2([H:8])[C:3]([H:9])([H:10])[O:4][C@@:5]12[H:11]>>[C:1]([C@@:2]1([H:8])[C:3]([H:9])([H:10])[O+:4]=[C-:5]1)([H:6])([H:7])[H:11]"
C       -1.21366791      -0.34119291      -0.11512784
C        0.01540964       0.02397817       0.67453302
C        1.34159891      -0.18583694      -0.03727129
O        1.08110657       0.98355064      -0.85198497
C       -0.14265757       1.18924757      -0.27353429
H       -2.11173658      -0.26505270       0.49268303
H       -1.16641733      -1.30726681      -0.61265526
H       -0.04922146       0.15432708       1.74794677
H        1.46989064      -1.07835962      -0.65291778
H        2.22907827      -0.02326694       0.57691978
H       -1.45338319       0.84987246      -0.94859117
11
Frame=16 idx=002420 GeodesicLength=0.766253073007466 rxn_smarts="[C:1]1([H:6])([H:7])[C@@:2]2([H:8])[C:3]([H:9])([H:10])[O:4][C@@:5]12[H:11]>>[C:1]([C@@:2]1([H:8])[C:3]([H:9])([H:10])[O+:4]=[C-:5]1)([H:6])([H:7])[H:11]"
C       -1.21621023      -0.34230754      -0.11832533
C        0.01588354       0.02166490       0.67064515
C        1.34475734      -0.18444082      -0.03797368
O        1.09461361       1.00112880      -0.83322239
C       -0.14064034       1.18591525      -0.27645311
H       -2.11046588      -0.25906265       0.49468958
H       -1.17631112      -1.32237141      -0.58931018
H       -0.04845778       0.15608472       1.74370061
H        1.47083164      -1.06619752      -0.66932245
H        2.23061592      -0.03740727       0.58252416
H       -1.46461670       0.84699353      -0.96695237
