11
Frame=0 idx=001565 GeodesicLength=0.0 rxn_smarts="[C:1]([C:2]([O:3][C:4](=[O:5])[H:11])([H:9])[H:10])([H:6])([H:7])[H:8]>>[C-:2](=[O+:3][C:4](=[O:5])[H:11])[H:9].[C:1]([H:6])([H:7])([H:8])[H:10]"
C       -1.42966410       0.50705148       0.07711479
C       -0.01311573      -1.07409054       0.62564359
O        1.13978696      -0.33764151       0.77752904
C        1.85643496       0.04877218      -0.31238801
O        1.51392911      -0.06140316      -1.44636153
H       -0.79960839       0.79322164      -0.75520085
H       -2.38305726       0.10847488      -0.26138219
H       -1.54757558       1.31948689       0.79248749
H       -0.09513911      -1.41500192      -0.41354968
H       -1.04820856      -0.37075379       0.89089094
H        2.80621765       0.48188380       0.02521645
11
Frame=1 idx=001565 GeodesicLength=0.06478563513716043 rxn_smarts="[C:1]([C:2]([O:3][C:4](=[O:5])[H:11])([H:9])[H:10])([H:6])([H:7])[H:8]>>[C-:2](=[O+:3][C:4](=[O:5])[H:11])[H:9].[C:1]([H:6])([H:7])([H:8])[H:10]"
C       -1.43673337       0.50403909       0.08209071
C       -0.01183681      -1.06614541       0.60831655
O        1.13699947      -0.32722360       0.77245646
C        1.86930099       0.04774817      -0.31174702
O        1.54734942      -0.08521471      -1.44907043
H       -0.82584206       0.79217953      -0.76454767
H       -2.40027117       0.11930651      -0.24418478
H       -1.53694492       1.32293124       0.79302367
H       -0.08816523      -1.41518851      -0.42848112
H       -1.06531407      -0.38296567       0.90751877
H        2.81145774       0.49053335       0.03462485
11
Frame=2 idx=001565 GeodesicLength=0.12965775646698124 rxn_smarts="[C:1]([C:2]([O:3][C:4](=[O:5])[H:11])([H:9])[H:10])([H:6])([H:7])[H:8]>>[C-:2](=[O+:3][C:4](=[O:5])[H:11])[H:9].[C:1]([H:6])([H:7])([H:8])[H:10]"
C       -1.44433312       0.50116448       0.08716670
C       -0.01072437      -1.05726285       0.59056290
O        1.13414829      -0.31618128       0.76677444
C        1.88279984       0.04614824      -0.31126031
O        1.58237358      -0.11094418      -1.45116973
H       -0.85296546       0.79220943      -0.77307309
H       -2.41750978       0.13004431      -0.22678821
H       -1.52744802       1.32565323       0.79406893
H       -0.08115168      -1.41485810      -0.44362741
H       -1.08199294      -0.39531371       0.92365980
H        2.81680366       0.49934043       0.04368598
11
Frame=3 idx=001565 GeodesicLength=0.1946334475774395 rxn_smarts="[C:1]([C:2]([O:3][C:4](=[O:5])[H:11])([H:9])[H:10])([H:6])([H:7])[H:8]>>[C-:2](=[O+:3][C:4](=[O:5])[H:11])[H:9].[C:1]([H:6])([H:7])([H:8])[H:10]"
C       -1.45257181       0.49838996       0.09235594
C       -0.00971493      -1.04736516       0.57224215
O        1.13119874      -0.30430086       0.76042058
C        1.89670840       0.04466378      -0.31088419
O        1.61924399      -0.13875925      -1.45245440
H       -0.88130740       0.79314272      -0.78094766
H       -2.43496200       0.14058056      -0.20889923
H       -1.51903124       1.32773842       0.79557245
H       -0.07401099      -1.41383525      -0.45914465
H       -1.09822969      -0.40788194       0.93927712
H        2.82267693       0.50762703       0.05246187
11
Frame=4 idx=001565 GeodesicLength=0.2597131289888055 rxn_smarts="[C:1]([C:2]([O:3][C:4](=[O:5])[H:11])([H:9])[H:10])([H:6])([H:7])[H:8]>>[C-:2](=[O+:3][C:4](=[O:5])[H:11])[H:9].[C:1]([H:6])([H:7])([H:8])[H:10]"
C       -1.46147119       0.49574973       0.09768775
C       -0.00881773      -1.03642476       0.55328990
O        1.12814675      -0.29153932       0.75328356
C        1.91126667       0.04277275      -0.31067039
O        1.65804511      -0.16887304      -1.45276836
H       -0.91078041       0.79516686      -0.78799823
H       -2.45258169       0.15083783      -0.19062240
H       -1.51186879       1.32920213       0.79763323
H       -0.06683382      -1.41205504      -0.47509556
H       -1.11397641      -0.42066710       0.95439973
H        2.82887151       0.51582994       0.06086078
11
Frame=5 idx=001565 GeodesicLength=0.3249025226782283 rxn_smarts="[C:1]([C:2]([O:3][C:4](=[O:5])[H:11])([H:9])[H:10])([H:6])([H:7])[H:8]>>[C-:2](=[O+:3][C:4](=[O:5])[H:11])[H:9].[C:1]([H:6])([H:7])([H:8])[H:10]"
C       -1.47105461       0.49325312       0.10318838
C       -0.00803202      -1.02442204       0.53355644
O        1.12497601      -0.27785653       0.74525807
C        1.92647828       0.04051502      -0.31060604
O        1.69897719      -0.20160020      -1.45184245
H       -0.94151756       0.79824947      -0.79425640
H       -2.47044505       0.16080677      -0.17178719
H       -1.50588054       1.33011143       0.80027205
H       -0.05964668      -1.40940150      -0.49165097
H       -1.12918916      -0.43374012       0.96899159
H        2.83533415       0.52408457       0.06887651
11
Frame=6 idx=001565 GeodesicLength=0.39020005407211356 rxn_smarts="[C:1]([C:2]([O:3][C:4](=[O:5])[H:11])([H:9])[H:10])([H:6])([H:7])[H:8]>>[C-:2](=[O+:3][C:4](=[O:5])[H:11])[H:9].[C:1]([H:6])([H:7])([H:8])[H:10]"
C       -1.48139783       0.49088497       0.10887561
C       -0.00732339      -1.01125203       0.51291100
O        1.12166641      -0.26305766       0.73621759
C        1.94234600       0.03802149      -0.31070723
O        1.74217488      -0.23713522      -1.44935886
H       -0.97372226       0.80237258      -0.79974413
H       -2.48864481       0.17037915      -0.15224526
H       -1.50111405       1.33050408       0.80349443
H       -0.05242968      -1.40570794      -0.50895701
H       -1.14380956      -0.44715934       0.98301990
H        2.84225429       0.53214992       0.07649395
11
Frame=7 idx=001565 GeodesicLength=0.4555486953435626 rxn_smarts="[C:1]([C:2]([O:3][C:4](=[O:5])[H:11])([H:9])[H:10])([H:6])([H:7])[H:8]>>[C-:2](=[O+:3][C:4](=[O:5])[H:11])[H:9].[C:1]([H:6])([H:7])([H:8])[H:10]"
C       -1.49233068       0.48875667       0.11480498
C       -0.00681849      -0.99707759       0.49118402
O        1.11823264      -0.24754682       0.72605554
C        1.95922338       0.03418896      -0.31084647
O        1.78776429      -0.27605781      -1.44492919
H       -1.00707144       0.80777541      -0.80422185
H       -2.50699728       0.17975133      -0.13210559
H       -1.49739035       1.33041246       0.80748132
H       -0.04539624      -1.40098678      -0.52722339
H       -1.15777708      -0.46098210       0.99642808
H        2.84856126       0.54176627       0.08337255
11
Frame=8 idx=001565 GeodesicLength=0.5209769756407702 rxn_smarts="[C:1]([C:2]([O:3][C:4](=[O:5])[H:11])([H:9])[H:10])([H:6])([H:7])[H:8]>>[C-:2](=[O+:3][C:4](=[O:5])[H:11])[H:9].[C:1]([H:6])([H:7])([H:8])[H:10]"
C       -1.50405511       0.48679288       0.12098451
C       -0.00640936      -0.98161741       0.46822388
O        1.11463237      -0.23078678       0.71459794
C        1.97695074       0.02972079      -0.31105933
O        1.83588726      -0.31847808      -1.43807302
H       -1.04203280       0.81436818      -0.80778886
H       -2.52571538       0.18863353      -0.11110629
H       -1.49490588       1.32984187       0.81219605
H       -0.03839759      -1.39491498      -0.54662989
H       -1.17101300      -0.47528903       1.00915384
H        2.85505875       0.55172902       0.08950119
11
Frame=9 idx=001565 GeodesicLength=0.5864797981459822 rxn_smarts="[C:1]([C:2]([O:3][C:4](=[O:5])[H:11])([H:9])[H:10])([H:6])([H:7])[H:8]>>[C-:2](=[O+:3][C:4](=[O:5])[H:11])[H:9].[C:1]([H:6])([H:7])([H:8])[H:10]"
C       -1.51658307       0.48501050       0.12746596
C       -0.00610817      -0.96479202       0.44378281
O        1.11084963      -0.21270361       0.70164409
C        1.99548856       0.02466905      -0.31135385
O        1.88682078      -0.36504836      -1.42810609
H       -1.07875437       0.82222014      -0.81036680
H       -2.54483171       0.19701618      -0.08907159
H       -1.49360111       1.32877976       0.81775498
H       -0.03145820      -1.38725172      -0.56748987
H       -1.18342581      -0.49020948       1.02106770
H        2.86160347       0.56230955       0.09467267
11
Frame=10 idx=001565 GeodesicLength=0.652013127289908 rxn_smarts="[C:1]([C:2]([O:3][C:4](=[O:5])[H:11])([H:9])[H:10])([H:6])([H:7])[H:8]>>[C-:2](=[O+:3][C:4](=[O:5])[H:11])[H:9].[C:1]([H:6])([H:7])([H:8])[H:10]"
C       -1.53012721       0.48330853       0.13421866
C       -0.00578434      -0.94618767       0.41779118
O        1.10686534      -0.19255425       0.68690489
C        2.01504353       0.01902531      -0.31174931
O        1.94015036      -0.41535790      -1.41451946
H       -1.11764785       0.83129600      -0.81197463
H       -2.56448043       0.20441729      -0.06593382
H       -1.49389071       1.32720793       0.82408186
H       -0.02442872      -1.37765944      -0.58985837
H       -1.19484604      -0.50572546       1.03214500
H        2.86914605       0.57222965       0.09889400
11
Frame=11 idx=001565 GeodesicLength=0.717473938742668 rxn_smarts="[C:1]([C:2]([O:3][C:4](=[O:5])[H:11])([H:9])[H:10])([H:6])([H:7])[H:8]>>[C-:2](=[O+:3][C:4](=[O:5])[H:11])[H:9].[C:1]([H:6])([H:7])([H:8])[H:10]"
C       -1.54398880       0.48205134       0.14145278
C       -0.00590124      -0.92662517       0.38968390
O        1.10272337      -0.17219435       0.67049099
C        2.03582581       0.01076977      -0.31156881
O        1.99678314      -0.47182449      -1.39577482
H       -1.15753615       0.84238147      -0.81191061
H       -2.58402727       0.21190141      -0.04197628
H       -1.49471165       1.32502467       0.83192802
H       -0.01779772      -1.36622681      -0.61460435
H       -1.20532405      -0.52227345       1.04195577
H        2.87395455       0.58701561       0.10032341
11
Frame=12 idx=001565 GeodesicLength=0.7827848938149483 rxn_smarts="[C:1]([C:2]([O:3][C:4](=[O:5])[H:11])([H:9])[H:10])([H:6])([H:7])[H:8]>>[C-:2](=[O+:3][C:4](=[O:5])[H:11])[H:9].[C:1]([H:6])([H:7])([H:8])[H:10]"
C       -1.55928671       0.48062880       0.14891797
C       -0.00570479      -0.90435474       0.35963344
O        1.09833545      -0.14822162       0.65145895
C        2.05757566       0.00266229      -0.31160312
O        2.05510244      -0.53169643      -1.37174919
H       -1.20076289       0.85433034      -0.81098287
H       -2.60443688       0.21747670      -0.01631181
H       -1.49768777       1.32228135       0.84026977
H       -0.01067379      -1.35186951      -0.64126448
H       -1.21426706      -0.53941275       1.05070702
H        2.88180635       0.59817558       0.10092432
11
Frame=13 idx=001565 GeodesicLength=0.8479866772684079 rxn_smarts="[C:1]([C:2]([O:3][C:4](=[O:5])[H:11])([H:9])[H:10])([H:6])([H:7])[H:8]>>[C-:2](=[O+:3][C:4](=[O:5])[H:11])[H:9].[C:1]([H:6])([H:7])([H:8])[H:10]"
C       -1.57580356       0.47910319       0.15665115
C       -0.00536361      -0.87941671       0.32741067
O        1.09374572      -0.12077603       0.62947935
C        2.08078284      -0.00670370      -0.31136294
O        2.11455025      -0.59526225      -1.34170185
H       -1.24701555       0.86741181      -0.80892707
H       -2.62542996       0.22109873       0.01083362
H       -1.50264582       1.31897421       0.84936491
H       -0.00323357      -1.33452866      -0.67020169
H       -1.22146378      -0.55722544       1.05831095
H        2.89187704       0.60732484       0.10014290
11
Frame=14 idx=001565 GeodesicLength=0.9129381892347705 rxn_smarts="[C:1]([C:2]([O:3][C:4](=[O:5])[H:11])([H:9])[H:10])([H:6])([H:7])[H:8]>>[C-:2](=[O+:3][C:4](=[O:5])[H:11])[H:9].[C:1]([H:6])([H:7])([H:8])[H:10]"
C       -1.59268294       0.47788712       0.16498772
C       -0.00543845      -0.85279463       0.29189698
O        1.08892233      -0.09223761       0.60469799
C        2.10522688      -0.01915226      -0.30976146
O        2.17676279      -0.66639892      -1.30208316
H       -1.29499648       0.88274519      -0.80469462
H       -2.64629421       0.22428852       0.03949911
H       -1.50799255       1.31470044       0.86038548
H        0.00419587      -1.31372005      -0.70315548
H       -1.22701928      -0.57665570       1.06372417
H        2.89931604       0.62133791       0.09450327
11
Frame=15 idx=001565 GeodesicLength=0.9774775253779932 rxn_smarts="[C:1]([C:2]([O:3][C:4](=[O:5])[H:11])([H:9])[H:10])([H:6])([H:7])[H:8]>>[C-:2](=[O+:3][C:4](=[O:5])[H:11])[H:9].[C:1]([H:6])([H:7])([H:8])[H:10]"
C       -1.61117410       0.47607292       0.17331570
C       -0.00489129      -0.82197197       0.25407322
O        1.08399551      -0.05752328       0.57533564
C        2.13173083      -0.03337076      -0.30691173
O        2.23634623      -0.73817949      -1.25598304
H       -1.34763445       0.89802285      -0.79978798
H       -2.66781102       0.22367429       0.07020177
H       -1.51615370       1.30998453       0.87117965
H        0.01256883      -1.28891857      -0.73826991
H       -1.22956209      -0.59613844       1.06803836
H        2.91258526       0.62834793       0.08880834
11
Frame=16 idx=001565 GeodesicLength=1.041074439843144 rxn_smarts="[C:1]([C:2]([O:3][C:4](=[O:5])[H:11])([H:9])[H:10])([H:6])([H:7])[H:8]>>[C-:2](=[O+:3][C:4](=[O:5])[H:11])[H:9].[C:1]([H:6])([H:7])([H:8])[H:10]"
C       -1.62959153       0.47428114       0.18206829
C       -0.00469559      -0.78905327       0.21245618
O        1.07902584      -0.02143647       0.54238662
C        2.15853540      -0.05025419      -0.30173833
O        2.29568730      -0.81585417      -1.19777767
H       -1.40239156       0.91486129      -0.79268751
H       -2.68860117       0.22205683       0.10284341
H       -1.52399330       1.30424491       0.88332961
H        0.02154016      -1.25995921      -0.77799012
H       -1.22948406      -0.61728504       1.06959141
H        2.92396851       0.63839818       0.07751811
