10
Frame=0 idx=009998 GeodesicLength=0.0 rxn_smarts="[C:1](#[C:2][c:3]1[c:4]([H:9])[n:5][n:6][n:7]1[H:10])[H:8]>>[C:1](#[C:2][c:3]1[c:4]([H:9])[n:5][n:6]([H:10])[n:7]1)[H:8]"
C        2.60796034       0.33460919      -0.32265499
C        1.43652361       0.12430957      -0.19760029
C        0.04015764      -0.09781665      -0.05796062
C       -1.02609460       0.70944339      -0.43580166
N       -2.16301607       0.14730055      -0.03986472
N       -1.87573381      -1.02335279       0.47079103
N       -0.47352806      -1.21360927       0.48190446
H        3.65162784       0.51370768      -0.43427525
H       -1.00794364       1.65148394      -0.96044326
H       -1.18995326      -1.14607561       1.49590531
10
Frame=1 idx=009998 GeodesicLength=0.035935427794948495 rxn_smarts="[C:1](#[C:2][c:3]1[c:4]([H:9])[n:5][n:6][n:7]1[H:10])[H:8]>>[C:1](#[C:2][c:3]1[c:4]([H:9])[n:5][n:6]([H:10])[n:7]1)[H:8]"
C        2.60834114       0.33438336      -0.32242347
C        1.43682874       0.12391244      -0.19799919
C        0.03998476      -0.09574772      -0.06054852
C       -1.02649320       0.70938458      -0.44217169
N       -2.16272143       0.14866316      -0.04029791
N       -1.87164093      -1.02023343       0.47098116
N       -0.47606460      -1.20893315       0.48245356
H        3.65205828       0.51339955      -0.43367970
H       -1.00875864       1.65418658      -0.96180584
H       -1.19153412      -1.15901538       1.50549159
10
Frame=2 idx=009998 GeodesicLength=0.071879222800219 rxn_smarts="[C:1](#[C:2][c:3]1[c:4]([H:9])[n:5][n:6][n:7]1[H:10])[H:8]>>[C:1](#[C:2][c:3]1[c:4]([H:9])[n:5][n:6]([H:10])[n:7]1)[H:8]"
C        2.60880048       0.33568254      -0.31903399
C        1.43716715       0.12391690      -0.19760936
C        0.03982888      -0.09362238      -0.06312834
C       -1.02684914       0.70934810      -0.44864039
N       -2.16236914       0.15028455      -0.04054854
N       -1.86760318      -1.01696603       0.47113491
N       -0.47860967      -1.20419579       0.48295146
H        3.65239483       0.51180760      -0.43598602
H       -1.00951330       1.65657034      -0.96383607
H       -1.19324691      -1.17282582       1.51469633
10
Frame=3 idx=009998 GeodesicLength=0.10783295767885125 rxn_smarts="[C:1](#[C:2][c:3]1[c:4]([H:9])[n:5][n:6][n:7]1[H:10])[H:8]>>[C:1](#[C:2][c:3]1[c:4]([H:9])[n:5][n:6]([H:10])[n:7]1)[H:8]"
C        2.60937922       0.33712267      -0.31537614
C        1.43765965       0.12543859      -0.19424860
C        0.03979962      -0.09096685      -0.06474443
C       -1.02707005       0.70942761      -0.45498651
N       -2.16195931       0.15182014      -0.04121987
N       -1.86355945      -1.01385123       0.47071467
N       -0.48104211      -1.19918461       0.48384398
H        3.65265889       0.50930697      -0.44084366
H       -1.01012774       1.65862921      -0.96653938
H       -1.19573872      -1.18774249       1.52339994
10
Frame=4 idx=009998 GeodesicLength=0.14380602832365288 rxn_smarts="[C:1](#[C:2][c:3]1[c:4]([H:9])[n:5][n:6][n:7]1[H:10])[H:8]>>[C:1](#[C:2][c:3]1[c:4]([H:9])[n:5][n:6]([H:10])[n:7]1)[H:8]"
C        2.61018734       0.33816588      -0.31258226
C        1.43847675       0.13010936      -0.18480124
C        0.04006092      -0.08701440      -0.06394309
C       -1.02700228       0.70995330      -0.46060848
N       -2.16147115       0.15287369      -0.04304398
N       -1.85941732      -1.01135671       0.46880198
N       -0.48319172      -1.19365839       0.48555938
H        3.65280630       0.50528872      -0.45007354
H       -1.01050705       1.66005406      -0.97052774
H       -1.19994179      -1.20441550       1.53121896
10
Frame=5 idx=009998 GeodesicLength=0.179806194679398 rxn_smarts="[C:1](#[C:2][c:3]1[c:4]([H:9])[n:5][n:6][n:7]1[H:10])[H:8]>>[C:1](#[C:2][c:3]1[c:4]([H:9])[n:5][n:6]([H:10])[n:7]1)[H:8]"
C        2.61116190       0.33913364      -0.30854576
C        1.43948177       0.13636678      -0.17179373
C        0.04054263      -0.08239164      -0.06177402
C       -1.02650821       0.71114617      -0.46518935
N       -2.16074332       0.15451139      -0.04450515
N       -1.85534402      -1.00879664       0.46622227
N       -0.48537118      -1.18799957       0.48729731
H        3.65223653       0.50078914      -0.46287499
H       -1.01049210       1.66034445      -0.97687777
H       -1.20496400      -1.22310374       1.53804118
10
Frame=6 idx=009998 GeodesicLength=0.2158184140994366 rxn_smarts="[C:1](#[C:2][c:3]1[c:4]([H:9])[n:5][n:6][n:7]1[H:10])[H:8]>>[C:1](#[C:2][c:3]1[c:4]([H:9])[n:5][n:6]([H:10])[n:7]1)[H:8]"
C        2.61179020       0.34001810      -0.30569002
C        1.44011494       0.14059293      -0.16359507
C        0.04072821      -0.07886879      -0.06221969
C       -1.02641267       0.71168044      -0.47119602
N       -2.16003952       0.15706201      -0.04427078
N       -1.85134520      -1.00517010       0.46570114
N       -0.48769444      -1.18245990       0.48854289
H        3.65195725       0.49749986      -0.47009180
H       -1.01087588       1.66110810      -0.98240687
H       -1.20822289      -1.24146265       1.54522622
10
Frame=7 idx=009998 GeodesicLength=0.25185432602992325 rxn_smarts="[C:1](#[C:2][c:3]1[c:4]([H:9])[n:5][n:6][n:7]1[H:10])[H:8]>>[C:1](#[C:2][c:3]1[c:4]([H:9])[n:5][n:6]([H:10])[n:7]1)[H:8]"
C        2.61225608       0.34084179      -0.30334792
C        1.44054006       0.14384474      -0.15771291
C        0.04074717      -0.07589976      -0.06404889
C       -1.02651193       0.71210613      -0.47761379
N       -2.15927660       0.16059603      -0.04249360
N       -1.84746511      -1.00073417       0.46643119
N       -0.49016650      -1.17698277       0.48939015
H        3.65185501       0.49497419      -0.47437995
H       -1.01146182       1.66168223      -0.98850148
H       -1.21051635      -1.26042841       1.55227720
10
Frame=8 idx=009998 GeodesicLength=0.2880214654190345 rxn_smarts="[C:1](#[C:2][c:3]1[c:4]([H:9])[n:5][n:6][n:7]1[H:10])[H:8]>>[C:1](#[C:2][c:3]1[c:4]([H:9])[n:5][n:6]([H:10])[n:7]1)[H:8]"
C        2.61265681       0.34161899      -0.30103691
C        1.44088022       0.14703369      -0.15225115
C        0.04072331      -0.07304423      -0.06632190
C       -1.02663894       0.71264235      -0.48398975
N       -2.15840172       0.16502195      -0.03951016
N       -1.84368446      -0.99568566       0.46782378
N       -0.49273662      -1.17144721       0.49000511
H        3.65174859       0.49272155      -0.47776541
H       -1.01212596       1.66171845      -0.99581146
H       -1.21242123      -1.28057988       1.55885786
10
Frame=9 idx=009998 GeodesicLength=0.3240144148852217 rxn_smarts="[C:1](#[C:2][c:3]1[c:4]([H:9])[n:5][n:6][n:7]1[H:10])[H:8]>>[C:1](#[C:2][c:3]1[c:4]([H:9])[n:5][n:6]([H:10])[n:7]1)[H:8]"
C        2.61301333       0.34219526      -0.29854282
C        1.44111898       0.14972813      -0.14758202
C        0.04064101      -0.07056792      -0.06944079
C       -1.02678148       0.71304193      -0.49097037
N       -2.15740461       0.17025361      -0.03540621
N       -1.84005945      -0.99002588       0.47013196
N       -0.49546725      -1.16593697       0.49055582
H        3.65157002       0.49120825      -0.48014159
H       -1.01273841       1.66161619      -1.00365389
H       -1.21389214      -1.30151260       1.56504990
10
Frame=10 idx=009998 GeodesicLength=0.360087176066272 rxn_smarts="[C:1](#[C:2][c:3]1[c:4]([H:9])[n:5][n:6][n:7]1[H:10])[H:8]>>[C:1](#[C:2][c:3]1[c:4]([H:9])[n:5][n:6]([H:10])[n:7]1)[H:8]"
C        2.61339919       0.34281493      -0.29548366
C        1.44138664       0.15314442      -0.14142253
C        0.04063635      -0.06785938      -0.07203349
C       -1.02677602       0.71391111      -0.49701735
N       -2.15604613       0.17676304      -0.02995647
N       -1.83650347      -0.98365708       0.47264581
N       -0.49828984      -1.16025880       0.49096552
H        3.65107911       0.48974099      -0.48367341
H       -1.01319887       1.66009879      -1.01409396
H       -1.21568695      -1.32469801       1.57006954
10
Frame=11 idx=009998 GeodesicLength=0.39614638253489187 rxn_smarts="[C:1](#[C:2][c:3]1[c:4]([H:9])[n:5][n:6][n:7]1[H:10])[H:8]>>[C:1](#[C:2][c:3]1[c:4]([H:9])[n:5][n:6]([H:10])[n:7]1)[H:8]"
C        2.61372847       0.34347724      -0.29226975
C        1.44156324       0.15645673      -0.13565540
C        0.04060285      -0.06534804      -0.07519306
C       -1.02679829       0.71478571      -0.50325542
N       -2.15447807       0.18419663      -0.02330813
N       -1.83303896      -0.97660733       0.47600512
N       -0.50121289      -1.15447951       0.49135632
H        3.65056195       0.48855577      -0.48647545
H       -1.01372883       1.65807006      -1.02559516
H       -1.21719946      -1.34910727       1.57439091
10
Frame=12 idx=009998 GeodesicLength=0.4322354042141505 rxn_smarts="[C:1](#[C:2][c:3]1[c:4]([H:9])[n:5][n:6][n:7]1[H:10])[H:8]>>[C:1](#[C:2][c:3]1[c:4]([H:9])[n:5][n:6]([H:10])[n:7]1)[H:8]"
C        2.61400421       0.34415922      -0.28898236
C        1.44166045       0.15963526      -0.13027566
C        0.04054605      -0.06308889      -0.07892068
C       -1.02685647       0.71553508      -0.50981827
N       -2.15266466       0.19244171      -0.01571235
N       -1.82962874      -0.96886489       0.48022675
N       -0.50420802      -1.14852975       0.49191261
H        3.65002195       0.48770672      -0.48861673
H       -1.01429740       1.65564762      -1.03782953
H       -1.21857738      -1.37464208       1.57801622
10
Frame=13 idx=009998 GeodesicLength=0.4683162654477462 rxn_smarts="[C:1](#[C:2][c:3]1[c:4]([H:9])[n:5][n:6][n:7]1[H:10])[H:8]>>[C:1](#[C:2][c:3]1[c:4]([H:9])[n:5][n:6]([H:10])[n:7]1)[H:8]"
C        2.61423704       0.34494651      -0.28550616
C        1.44168673       0.16273659      -0.12515894
C        0.04048801      -0.06106957      -0.08314357
C       -1.02692971       0.71614327      -0.51668869
N       -2.15057329       0.20143120      -0.00731604
N       -1.82624749      -0.96043828       0.48530455
N       -0.50725092      -1.14235416       0.49277488
H        3.64942877       0.48710303      -0.49036922
H       -1.01488829       1.65282848      -1.05073988
H       -1.21995085      -1.40132707       1.58084307
10
Frame=14 idx=009998 GeodesicLength=0.5044370630911942 rxn_smarts="[C:1](#[C:2][c:3]1[c:4]([H:9])[n:5][n:6][n:7]1[H:10])[H:8]>>[C:1](#[C:2][c:3]1[c:4]([H:9])[n:5][n:6]([H:10])[n:7]1)[H:8]"
C        2.61441999       0.34576437      -0.28206906
C        1.44164179       0.16565406      -0.12052577
C        0.04042357      -0.05933786      -0.08789090
C       -1.02703420       0.71653113      -0.52392448
N       -2.14819544       0.21108531       0.00171079
N       -1.82286792      -0.95129553       0.49131798
N       -0.51032029      -1.13588189       0.49410749
H        3.64884215       0.48687142      -0.49150944
H       -1.01549875       1.64970494      -1.06408738
H       -1.22141089      -1.42909595       1.58287077
10
Frame=15 idx=009998 GeodesicLength=0.5405658290564299 rxn_smarts="[C:1](#[C:2][c:3]1[c:4]([H:9])[n:5][n:6][n:7]1[H:10])[H:8]>>[C:1](#[C:2][c:3]1[c:4]([H:9])[n:5][n:6]([H:10])[n:7]1)[H:8]"
C        2.61456157       0.34658129      -0.27874490
C        1.44153810       0.16838142      -0.11637104
C        0.04036283      -0.05786621      -0.09306766
C       -1.02715698       0.71674328      -0.53141070
N       -2.14550452       0.22140048       0.01132486
N       -1.81946606      -0.94140492       0.49830680
N       -0.51339818      -1.12904942       0.49603543
H        3.64827711       0.48706361      -0.49207160
H       -1.01612780       1.64618813      -1.07794935
H       -1.22308608      -1.45803766       1.58394816
10
Frame=16 idx=009998 GeodesicLength=0.5767154442968919 rxn_smarts="[C:1](#[C:2][c:3]1[c:4]([H:9])[n:5][n:6][n:7]1[H:10])[H:8]>>[C:1](#[C:2][c:3]1[c:4]([H:9])[n:5][n:6]([H:10])[n:7]1)[H:8]"
C        2.61468305       0.34741555      -0.27552718
C        1.44140644       0.17099947      -0.11254016
C        0.04033529      -0.05657269      -0.09845437
C       -1.02726579       0.71676675      -0.53909377
N       -2.14249075       0.23228792       0.02132867
N       -1.81600619      -0.93077775       0.50624533
N       -0.51643999      -1.12174782       0.49877963
H        3.64770943       0.48763172      -0.49235093
H       -1.01674144       1.64224368      -1.09230217
H       -1.22519004      -1.48824683       1.58391494
