17
Frame=0 idx=009810 GeodesicLength=0.0 rxn_smarts="[C:1]1([H:8])([H:9])[C:2]([H:10])([H:11])[O:3][C:4]([H:12])([H:13])[C:5]([H:14])=[C:6]([H:15])[C:7]1([H:16])[H:17]>>[C:1](=[C:2]([H:10])[H:11])([C:7](/[C:6](=[C:5](\[C:4]([O:3][H:9])([H:12])[H:13])[H:14])[H:15])([H:16])[H:17])[H:8]"
C       -1.50833434      -0.21039077      -0.24310815
C       -0.97637111      -1.16984486       0.64198954
O        0.42483647      -1.59236111      -0.50487384
C        1.58884778      -0.85170248      -0.23331984
C        1.44345452       0.63292570      -0.00890013
C        0.40078500       1.46052996       0.05933873
C       -1.07971125       1.22802025      -0.08518545
H       -2.48288486      -0.40714131      -0.67517162
H       -0.46186581      -0.86960536      -0.94898259
H       -0.36658255      -0.89457675       1.49809857
H       -1.43351179      -2.14947693       0.70690346
H        2.07709396      -1.28375446       0.64965542
H        2.29203816      -0.99871023      -1.06192513
H        2.41909044       1.09447444       0.13306502
H        0.64917288       2.50185832       0.25343018
H       -1.41751428       1.80111829      -0.95501958
H       -1.56854327       1.70863729       0.77400539
17
Frame=1 idx=009810 GeodesicLength=0.08879584803006184 rxn_smarts="[C:1]1([H:8])([H:9])[C:2]([H:10])([H:11])[O:3][C:4]([H:12])([H:13])[C:5]([H:14])=[C:6]([H:15])[C:7]1([H:16])[H:17]>>[C:1](=[C:2]([H:10])[H:11])([C:7](/[C:6](=[C:5](\[C:4]([O:3][H:9])([H:12])[H:13])[H:14])[H:15])([H:16])[H:17])[H:8]"
C       -1.51699646      -0.21196683      -0.21985042
C       -0.97053338      -1.17944489       0.64770803
O        0.42995568      -1.57984280      -0.52879318
C        1.59307154      -0.84376730      -0.24408440
C        1.44929361       0.63766945      -0.00306555
C        0.40300780       1.45740097       0.08681706
C       -1.07091102       1.22479341      -0.10606795
H       -2.51771928      -0.39307163      -0.59623579
H       -0.49290192      -0.87107586      -0.97170154
H       -0.36898826      -0.91121002       1.51170849
H       -1.42535069      -2.16101066       0.70602986
H        2.07862058      -1.28596763       0.63578334
H        2.29947725      -0.98324728      -1.07102175
H        2.42336098       1.09857472       0.15127592
H        0.64591000       2.49604180       0.30113899
H       -1.36971837       1.76289767      -1.01194021
H       -1.58957808       1.74322687       0.71229911
17
Frame=2 idx=009810 GeodesicLength=0.17759447401101605 rxn_smarts="[C:1]1([H:8])([H:9])[C:2]([H:10])([H:11])[O:3][C:4]([H:12])([H:13])[C:5]([H:14])=[C:6]([H:15])[C:7]1([H:16])[H:17]>>[C:1](=[C:2]([H:10])[H:11])([C:7](/[C:6](=[C:5](\[C:4]([O:3][H:9])([H:12])[H:13])[H:14])[H:15])([H:16])[H:17])[H:8]"
C       -1.52491825      -0.21300586      -0.19623102
C       -0.96506373      -1.18932761       0.65311662
O        0.43464877      -1.56604826      -0.55322098
C        1.59696997      -0.83512031      -0.25466179
C        1.45474750       0.64287083       0.00371124
C        0.40446796       1.45409808       0.11270089
C       -1.06166410       1.22085068      -0.12667801
H       -2.54883343      -0.37610751      -0.51507444
H       -0.52574091      -0.87299144      -0.99394644
H       -0.37196975      -0.92920133       1.52529516
H       -1.41819080      -2.17254415       0.70355061
H        2.07947269      -1.28789741       0.62192090
H        2.30674047      -0.96672548      -1.07976364
H        2.42701093       1.10304637       0.17094785
H        0.64105666       2.49010751       0.34583212
H       -1.32134550       1.72152051      -1.06559619
H       -1.60738847       1.77647537       0.64809712
17
Frame=3 idx=009810 GeodesicLength=0.2664235514638784 rxn_smarts="[C:1]1([H:8])([H:9])[C:2]([H:10])([H:11])[O:3][C:4]([H:12])([H:13])[C:5]([H:14])=[C:6]([H:15])[C:7]1([H:16])[H:17]>>[C:1](=[C:2]([H:10])[H:11])([C:7](/[C:6](=[C:5](\[C:4]([O:3][H:9])([H:12])[H:13])[H:14])[H:15])([H:16])[H:17])[H:8]"
C       -1.53202209      -0.21353516      -0.17251029
C       -0.95997066      -1.19939404       0.65816512
O        0.43893878      -1.55099316      -0.57808458
C        1.60058014      -0.82582597      -0.26500453
C        1.45985814       0.64846380       0.01132942
C        0.40524127       1.45078283       0.13656243
C       -1.05208069       1.21620549      -0.14705827
H       -2.57590034      -0.35635142      -0.43198507
H       -0.56028097      -0.87545599      -1.01568956
H       -0.37554760      -0.94839816       1.53875699
H       -1.41212449      -2.18390836       0.69956300
H        2.07962749      -1.28953686       0.60816542
H        2.31389985      -0.94931305      -1.08804466
H        2.43007166       1.10778121       0.19203547
H        0.63468105       2.48414710       0.38763918
H       -1.27307754       1.67746826      -1.11568691
H       -1.62189402       1.80786348       0.58184684
17
Frame=4 idx=009810 GeodesicLength=0.35531807347480093 rxn_smarts="[C:1]1([H:8])([H:9])[C:2]([H:10])([H:11])[O:3][C:4]([H:12])([H:13])[C:5]([H:14])=[C:6]([H:15])[C:7]1([H:16])[H:17]>>[C:1](=[C:2]([H:10])[H:11])([C:7](/[C:6](=[C:5](\[C:4]([O:3][H:9])([H:12])[H:13])[H:14])[H:15])([H:16])[H:17])[H:8]"
C       -1.53826667      -0.21360151      -0.14893997
C       -0.95526705      -1.20954746       0.66282729
O        0.44285274      -1.53472714      -0.60329628
C        1.60394349      -0.81596105      -0.27508165
C        1.46467400       0.65439689       0.01961320
C        0.40541431       1.44760031       0.15815632
C       -1.04227272       1.21088054      -0.16725210
H       -2.59860021      -0.33394144      -0.34733153
H       -0.59639814      -0.87856630      -1.03689094
H       -0.37974098      -0.96862602       1.55201039
H       -1.40723388      -2.19494926       0.69421509
H        2.07908032      -1.29085903       0.59460834
H        2.32102613      -0.93122324      -1.09578227
H        2.43258881       1.11269993       0.21435200
H        0.62685467       2.47820375       0.42685284
H       -1.22547264       1.63128017      -1.16207484
H       -1.63318218       1.83694088       0.51401411
17
Frame=5 idx=009810 GeodesicLength=0.4442559371865975 rxn_smarts="[C:1]1([H:8])([H:9])[C:2]([H:10])([H:11])[O:3][C:4]([H:12])([H:13])[C:5]([H:14])=[C:6]([H:15])[C:7]1([H:16])[H:17]>>[C:1](=[C:2]([H:10])[H:11])([C:7](/[C:6](=[C:5](\[C:4]([O:3][H:9])([H:12])[H:13])[H:14])[H:15])([H:16])[H:17])[H:8]"
C       -1.54360207      -0.21325506      -0.12578688
C       -0.95093482      -1.21968641       0.66706325
O        0.44641947      -1.51727837      -0.62878850
C        1.60707050      -0.80558477      -0.28487559
C        1.46920645       0.66060517       0.02840142
C        0.40505577       1.44463826       0.17736982
C       -1.03230978       1.20488091      -0.18732377
H       -2.61660826      -0.30898044      -0.26126362
H       -0.63390516      -0.88232471      -1.05753743
H       -0.38459295      -0.98973025       1.56497508
H       -1.40353982      -2.20549714       0.68765493
H        2.07779497      -1.29185415       0.58131343
H        2.32814038      -0.91260977      -1.10291591
H        2.43454478       1.11768217       0.23778981
H        0.61760650       2.47226216       0.46367425
H       -1.17892224       1.58346396      -1.20478662
H       -1.64142371       1.86326845       0.44503632
17
Frame=6 idx=009810 GeodesicLength=0.533282193681676 rxn_smarts="[C:1]1([H:8])([H:9])[C:2]([H:10])([H:11])[O:3][C:4]([H:12])([H:13])[C:5]([H:14])=[C:6]([H:15])[C:7]1([H:16])[H:17]>>[C:1](=[C:2]([H:10])[H:11])([C:7](/[C:6](=[C:5](\[C:4]([O:3][H:9])([H:12])[H:13])[H:14])[H:15])([H:16])[H:17])[H:8]"
C       -1.54806856      -0.21256792      -0.10324636
C       -0.94700642      -1.22975380       0.67088186
O        0.44967835      -1.49876688      -0.65444726
C        1.61000538      -0.79478996      -0.29436465
C        1.47349884       0.66706951       0.03745211
C        0.40424760       1.44199095       0.19421479
C       -1.02229889       1.19824705      -0.20725940
H       -2.62962342      -0.28164664      -0.17432943
H       -0.67263945      -0.88677012      -1.07757506
H       -0.39013467      -1.01155485       1.57760671
H       -1.40111768      -2.21546770       0.68006998
H        2.07579915      -1.29247174       0.56837775
H        2.33531326      -0.89373112      -1.10938666
H        2.43599613       1.12271752       0.26198434
H        0.60700882       2.46632271       0.49842680
H       -1.13377239       1.53459287      -1.24385946
H       -1.64688604       1.88658011       0.37545394
17
Frame=7 idx=009810 GeodesicLength=0.6223986923123033 rxn_smarts="[C:1]1([H:8])([H:9])[C:2]([H:10])([H:11])[O:3][C:4]([H:12])([H:13])[C:5]([H:14])=[C:6]([H:15])[C:7]1([H:16])[H:17]>>[C:1](=[C:2]([H:10])[H:11])([C:7](/[C:6](=[C:5](\[C:4]([O:3][H:9])([H:12])[H:13])[H:14])[H:15])([H:16])[H:17])[H:8]"
C       -1.55169827      -0.21160780      -0.08149711
C       -0.94347763      -1.23969236       0.67427973
O        0.45266678      -1.47928523      -0.68018731
C        1.61275741      -0.78364126      -0.30354522
C        1.47755521       0.67375936       0.04657243
C        0.40304936       1.43969527       0.20876384
C       -1.01230079       1.19100017      -0.22706590
H       -2.63735841      -0.25208176      -0.08684509
H       -0.71240311      -0.89183929      -1.09698380
H       -0.39640763      -1.03397248       1.58986565
H       -1.39997760      -2.22476617       0.67163062
H        2.07309246      -1.29268193       0.55585676
H        2.34255617      -0.87475376      -1.11516967
H        2.43692963       1.12774367       0.28674837
H        0.59509564       2.46032736       0.53130337
H       -1.09022135       1.48513421      -1.27945383
H       -1.64985788       1.90666200       0.30572716
17
Frame=8 idx=009810 GeodesicLength=0.7116266095355084 rxn_smarts="[C:1]1([H:8])([H:9])[C:2]([H:10])([H:11])[O:3][C:4]([H:12])([H:13])[C:5]([H:14])=[C:6]([H:15])[C:7]1([H:16])[H:17]>>[C:1](=[C:2]([H:10])[H:11])([C:7](/[C:6](=[C:5](\[C:4]([O:3][H:9])([H:12])[H:13])[H:14])[H:15])([H:16])[H:17])[H:8]"
C       -1.55456360      -0.21044166      -0.06066427
C       -0.94035913      -1.24947351       0.67727509
O        0.45542816      -1.45896918      -0.70590222
C        1.61534348      -0.77221279      -0.31240850
C        1.48138617       0.68066390       0.05556281
C        0.40152267       1.43778414       0.22113662
C       -1.00238255       1.18318367      -0.24671369
H       -2.63956743      -0.22047915       0.00071278
H       -0.75300827      -0.89743940      -1.11574170
H       -0.40345331      -1.05687478       1.60173451
H       -1.40014010      -2.23334792       0.66252120
H        2.06970128      -1.29245260       0.54381746
H        2.34988682      -0.85586374      -1.12024282
H        2.43735723       1.13274603       0.31180807
H        0.58193554       2.45422897       0.56251003
H       -1.04841884       1.43554112      -1.31174608
H       -1.65066813       1.92340690       0.23634069
17
Frame=9 idx=009810 GeodesicLength=0.8009650562612675 rxn_smarts="[C:1]1([H:8])([H:9])[C:2]([H:10])([H:11])[O:3][C:4]([H:12])([H:13])[C:5]([H:14])=[C:6]([H:15])[C:7]1([H:16])[H:17]>>[C:1](=[C:2]([H:10])[H:11])([C:7](/[C:6](=[C:5](\[C:4]([O:3][H:9])([H:12])[H:13])[H:14])[H:15])([H:16])[H:17])[H:8]"
C       -1.55673222      -0.20912152      -0.04082633
C       -0.93764764      -1.25906681       0.67986448
O        0.45801803      -1.43794671      -0.73152072
C        1.61776756      -0.76056826      -0.32095467
C        1.48497899       0.68775585       0.06429036
C        0.39970231       1.43626105       0.23149677
C       -0.99258142       1.17483485      -0.26614301
H       -2.63599763      -0.18704754       0.08803072
H       -0.79424476      -0.90339591      -1.13386039
H       -0.41135683      -1.08017977       1.61319024
H       -1.40158849      -2.24115564       0.65286146
H        2.06562946      -1.29177487       0.53229102
H        2.35731266      -0.83719611      -1.12460100
H        2.43724452       1.13765603       0.33706091
H        0.56756719       2.44802483       0.59198620
H       -1.00842820       1.38615817      -1.34092098
H       -1.64964352       1.93676236       0.16775493
17
Frame=10 idx=009810 GeodesicLength=0.8904286091457099 rxn_smarts="[C:1]1([H:8])([H:9])[C:2]([H:10])([H:11])[O:3][C:4]([H:12])([H:13])[C:5]([H:14])=[C:6]([H:15])[C:7]1([H:16])[H:17]>>[C:1](=[C:2]([H:10])[H:11])([C:7](/[C:6](=[C:5](\[C:4]([O:3][H:9])([H:12])[H:13])[H:14])[H:15])([H:16])[H:17])[H:8]"
C       -1.55830596      -0.20770028      -0.02199513
C       -0.93536499      -1.26848087       0.68211056
O        0.46048519      -1.41639793      -0.75689439
C        1.62004402      -0.74878180      -0.32915427
C        1.48835321       0.69504994       0.07255975
C        0.39765903       1.43513805       0.24000087
C       -0.98295785       1.16602108      -0.28526497
H       -2.62655059      -0.15210002       0.17430967
H       -0.83597191      -0.90954962      -1.15132575
H       -0.42013684      -1.10381648       1.62425966
H       -1.40433777      -2.24820699       0.64284811
H        2.06092692      -1.29059535       0.52138210
H        2.36483351      -0.81894567      -1.12821654
H        2.43663992       1.14254211       0.36208079
H        0.55213771       2.44165902       0.61997049
H       -0.97034466       1.33737208      -1.36715291
H       -1.64710894       1.94679274       0.10048195
17
Frame=11 idx=009810 GeodesicLength=0.9800211595802034 rxn_smarts="[C:1]1([H:8])([H:9])[C:2]([H:10])([H:11])[O:3][C:4]([H:12])([H:13])[C:5]([H:14])=[C:6]([H:15])[C:7]1([H:16])[H:17]>>[C:1](=[C:2]([H:10])[H:11])([C:7](/[C:6](=[C:5](\[C:4]([O:3][H:9])([H:12])[H:13])[H:14])[H:15])([H:16])[H:17])[H:8]"
C       -1.55936131      -0.20620652      -0.00413007
C       -0.93350430      -1.27771439       0.68405332
O        0.46288767      -1.39447176      -0.78192796
C        1.62218073      -0.73690929      -0.33699727
C        1.49151768       0.70254716       0.08024112
C        0.39544224       1.43441009       0.24680811
C       -0.97353944       1.15680330      -0.30399181
H       -2.61118091      -0.11596308       0.25900500
H       -0.87806767      -0.91568327      -1.16815194
H       -0.42983200      -1.12773826       1.63495537
H       -1.40835069      -2.25449596       0.63260399
H        2.05562303      -1.28889092       0.51114308
H        2.37244547      -0.80124052      -1.13108628
H        2.43554861       1.14739316       0.38670859
H        0.53575522       2.43510788       0.64646480
H       -0.93419968       1.28943374      -1.39063406
H       -1.64336466       1.95361863       0.03493599
17
Frame=12 idx=009810 GeodesicLength=1.0697541421386332 rxn_smarts="[C:1]1([H:8])([H:9])[C:2]([H:10])([H:11])[O:3][C:4]([H:12])([H:13])[C:5]([H:14])=[C:6]([H:15])[C:7]1([H:16])[H:17]>>[C:1](=[C:2]([H:10])[H:11])([C:7](/[C:6](=[C:5](\[C:4]([O:3][H:9])([H:12])[H:13])[H:14])[H:15])([H:16])[H:17])[H:8]"
C       -1.55996981      -0.20465479       0.01285552
C       -0.93206693      -1.28677568       0.68576019
O        0.46528769      -1.37232858      -0.80651165
C        1.62420143      -0.72500784      -0.34446459
C        1.49450946       0.71026848       0.08719511
C        0.39312035       1.43408171       0.25206437
C       -0.96435228       1.14725841      -0.32222871
H       -2.59001504      -0.07904269       0.34141954
H       -0.92046549      -0.92158603      -1.18434976
H       -0.44046553      -1.15189903       1.64531339
H       -1.41359297      -2.26004162       0.62226557
H        2.04976620      -1.28662800       0.50164983
H        2.38016098      -0.78422727      -1.13320215
H        2.43402854       1.15225800       0.41067837
H        0.51857419       2.42833026       0.67158938
H       -0.90002375       1.24256789      -1.41155061
H       -1.63869705       1.95742678      -0.02848380
17
Frame=13 idx=009810 GeodesicLength=1.1596316209620803 rxn_smarts="[C:1]1([H:8])([H:9])[C:2]([H:10])([H:11])[O:3][C:4]([H:12])([H:13])[C:5]([H:14])=[C:6]([H:15])[C:7]1([H:16])[H:17]>>[C:1](=[C:2]([H:10])[H:11])([C:7](/[C:6](=[C:5](\[C:4]([O:3][H:9])([H:12])[H:13])[H:14])[H:15])([H:16])[H:17])[H:8]"
C       -1.56017527      -0.20304998       0.02908339
C       -0.93103659      -1.29569401       0.68726677
O        0.46774637      -1.35009184      -0.83058029
C        1.62612163      -0.71312205      -0.35152595
C        1.49735546       0.71821842       0.09337289
C        0.39074792       1.43414211       0.25597387
C       -0.95540511       1.13745358      -0.33985274
H       -2.56325292      -0.04178371       0.42104943
H       -0.96314862      -0.92700872      -1.19995273
H       -0.45207288      -1.17631937       1.65535537
H       -1.41999804      -2.26487356       0.61186347
H        2.04338283      -1.28380479       0.49296555
H        2.38798590      -0.76799787      -1.13453918
H        2.43211802       1.15714505       0.43388230
H        0.50080487       2.42144210       0.69512492
H       -0.86780381       1.19692565      -1.43005131
H       -1.63336976       1.95841899      -0.08943574
17
Frame=14 idx=009810 GeodesicLength=1.2496530682643898 rxn_smarts="[C:1]1([H:8])([H:9])[C:2]([H:10])([H:11])[O:3][C:4]([H:12])([H:13])[C:5]([H:14])=[C:6]([H:15])[C:7]1([H:16])[H:17]>>[C:1](=[C:2]([H:10])[H:11])([C:7](/[C:6](=[C:5](\[C:4]([O:3][H:9])([H:12])[H:13])[H:14])[H:15])([H:16])[H:17])[H:8]"
C       -1.56000565      -0.20138650       0.04468522
C       -0.93040466      -1.30448227       0.68865939
O        0.47033809      -1.32789959      -0.85403034
C        1.62798759      -0.70129652      -0.35815483
C        1.50012949       0.72644090       0.09863546
C        0.38840915       1.43459646       0.25863282
C       -0.94670204       1.12746848      -0.35679774
H       -2.53133463      -0.00463747       0.49721621
H       -1.00615391      -0.93176208      -1.21496468
H       -0.46464902      -1.20095840       1.66512942
H       -1.42750497      -2.26902487       0.60151290
H        2.03653381      -1.28037498       0.48518516
H        2.39595672      -0.75269270      -1.13507951
H        2.42993185       1.16216762       0.45598995
H        0.48260966       2.41433130       0.71736641
H       -0.83754742       1.15263663      -1.44633076
H       -1.62759405       1.95687399      -0.14765507
17
Frame=15 idx=009810 GeodesicLength=1.3398155301586445 rxn_smarts="[C:1]1([H:8])([H:9])[C:2]([H:10])([H:11])[O:3][C:4]([H:12])([H:13])[C:5]([H:14])=[C:6]([H:15])[C:7]1([H:16])[H:17]>>[C:1](=[C:2]([H:10])[H:11])([C:7](/[C:6](=[C:5](\[C:4]([O:3][H:9])([H:12])[H:13])[H:14])[H:15])([H:16])[H:17])[H:8]"
C       -1.55945988      -0.19965789       0.05979729
C       -0.93014354      -1.31316919       0.68998399
O        0.47313609      -1.30584615      -0.87681152
C        1.62983720      -0.68955944      -0.36432209
C        1.50289112       0.73496584       0.10292162
C        0.38616960       1.43543745       0.26017254
C       -0.93822971       1.11736125      -0.37299813
H       -2.49472180       0.03197410       0.56954305
H       -1.04956451      -0.93564157      -1.22940643
H       -0.47820383      -1.22582876       1.67466054
H       -1.43602707      -2.27252948       0.59122772
H        2.02925421      -1.27631685       0.47838298
H        2.40410553      -0.73839350      -1.13479343
H        2.42755415       1.16739589       0.47684691
H        0.46416541       2.40700100       0.73833972
H       -0.80921667       1.10975097      -1.46056439
H       -1.62154631       1.95305634      -0.20298037
17
Frame=16 idx=009810 GeodesicLength=1.4301141187322586 rxn_smarts="[C:1]1([H:8])([H:9])[C:2]([H:10])([H:11])[O:3][C:4]([H:12])([H:13])[C:5]([H:14])=[C:6]([H:15])[C:7]1([H:16])[H:17]>>[C:1](=[C:2]([H:10])[H:11])([C:7](/[C:6](=[C:5](\[C:4]([O:3][H:9])([H:12])[H:13])[H:14])[H:15])([H:16])[H:17])[H:8]"
C       -1.55852432      -0.19786163       0.07454697
C       -0.93022769      -1.32179438       0.69127663
O        0.47622043      -1.28401173      -0.89888661
C        1.63171961      -0.67793455      -0.36999269
C        1.50570854       0.74382774       0.10618677
C        0.38409202       1.43665749       0.26071807
C       -0.92997092       1.10718280      -0.38840236
H       -2.45395401       0.06765369       0.63776139
H       -1.09350456      -0.93845847      -1.24329494
H       -0.49275692      -1.25095539       1.68396674
H       -1.44547856      -2.27543341       0.58099292
H        2.02158127      -1.27161073       0.47263860
H        2.41248239      -0.72517317      -1.13363859
H        2.42509180       1.17293141       0.49627739
H        0.44565230       2.39946128       0.75808663
H       -0.78275696       1.06828670      -1.47291877
H       -1.61537444       1.94723235      -0.25531815
