17
Frame=0 idx=010931 GeodesicLength=0.0 rxn_smarts="[O:1]([C:2]([C@@:3]1([H:11])[C:4]([H:12])([H:13])[C:5]([H:14])([H:15])[C:6]([H:16])([H:17])[O:7]1)([H:9])[H:10])[H:8]>>[C:3](=[C:4]([H:12])[H:13])([O:7][C:6]([C:5]([H:8])([H:14])[H:15])([H:16])[H:17])[H:11].[O:1]=[C:2]([H:9])[H:10]"
O        1.24364833       0.03426993       1.38517804
C        1.62638486      -0.60940623       0.32304760
C        0.33656695      -0.78831346      -0.84478967
C       -0.74400354      -1.32715570      -0.11937983
C       -1.01926576       0.88114276       0.69233100
C       -0.43397168       1.41785471      -0.59816323
O        0.00931901       0.38227402      -1.50032556
H       -0.12792679       0.18140818       1.18974839
H        1.88069600      -1.67562552       0.46918709
H        2.37766435      -0.10332379      -0.30405002
H        0.88030249      -1.45836226      -1.50710058
H       -0.57416706      -2.13003365       0.58955649
H       -1.76439276      -1.10316830      -0.37975660
H       -0.90109667       1.62720882       1.48453437
H       -2.07008774       0.61558346       0.64646795
H        0.42958364       2.04329583      -0.35867049
H       -1.14925363       2.01235122      -1.16781492
17
Frame=1 idx=010931 GeodesicLength=0.1390188514809972 rxn_smarts="[O:1]([C:2]([C@@:3]1([H:11])[C:4]([H:12])([H:13])[C:5]([H:14])([H:15])[C:6]([H:16])([H:17])[O:7]1)([H:9])[H:10])[H:8]>>[C:3](=[C:4]([H:12])[H:13])([O:7][C:6]([C:5]([H:8])([H:14])[H:15])([H:16])[H:17])[H:11].[O:1]=[C:2]([H:9])[H:10]"
O        1.28772685       0.05943949       1.37754041
C        1.64272845      -0.62140037       0.32915370
C        0.33262270      -0.77921023      -0.84624751
C       -0.74454105      -1.32706179      -0.12226504
C       -1.02681283       0.88277106       0.69242964
C       -0.44926898       1.42706933      -0.59799646
O       -0.00511086       0.39207466      -1.49537333
H       -0.08744089       0.20437373       1.20597637
H        1.85641327      -1.69064722       0.51325935
H        2.42204535      -0.16881779      -0.30397351
H        0.87360184      -1.43380697      -1.52616876
H       -0.56834172      -2.14411103       0.56876669
H       -1.76891333      -1.13247950      -0.39194202
H       -0.93197039       1.63478595       1.48235218
H       -2.07907400       0.62032730       0.64151698
H        0.41282297       2.05579196      -0.36127484
H       -1.16648737       2.02090142      -1.16575385
17
Frame=2 idx=010931 GeodesicLength=0.27774093758796325 rxn_smarts="[O:1]([C:2]([C@@:3]1([H:11])[C:4]([H:12])([H:13])[C:5]([H:14])([H:15])[C:6]([H:16])([H:17])[O:7]1)([H:9])[H:10])[H:8]>>[C:3](=[C:4]([H:12])[H:13])([O:7][C:6]([C:5]([H:8])([H:14])[H:15])([H:16])[H:17])[H:11].[O:1]=[C:2]([H:9])[H:10]"
O        1.33385387       0.08585627       1.36730459
C        1.65918385      -0.63396316       0.33551854
C        0.32879916      -0.76958539      -0.84773410
C       -0.74510399      -1.32682920      -0.12568899
C       -1.03439011       0.88412466       0.69285218
C       -0.46529799       1.43645120      -0.59759507
O       -0.01984392       0.40228448      -1.49029442
H       -0.04466604       0.22973909       1.22118392
H        1.83036837      -1.70311223       0.56022899
H        2.46530070      -0.23985861      -0.30254046
H        0.86720959      -1.40811969      -1.54490199
H       -0.56255458      -2.15816685       0.54650084
H       -1.77245385      -1.16263234      -0.40562244
H       -0.96239403       1.64094833       1.48079971
H       -2.08808487       0.62474554       0.63709014
H        0.39501257       2.06892276      -0.36383801
H       -1.18493872       2.02919514      -1.16326342
17
Frame=3 idx=010931 GeodesicLength=0.41609982338380613 rxn_smarts="[O:1]([C:2]([C@@:3]1([H:11])[C:4]([H:12])([H:13])[C:5]([H:14])([H:15])[C:6]([H:16])([H:17])[O:7]1)([H:9])[H:10])[H:8]>>[C:3](=[C:4]([H:12])[H:13])([O:7][C:6]([C:5]([H:8])([H:14])[H:15])([H:16])[H:17])[H:11].[O:1]=[C:2]([H:9])[H:10]"
O        1.38213627       0.11340682       1.35409269
C        1.67567538      -0.64714537       0.34221326
C        0.32509105      -0.75942368      -0.84927880
C       -0.74569935      -1.32649677      -0.12976704
C       -1.04191754       0.88515028       0.69361809
C       -0.48209127       1.44594787      -0.59693910
O       -0.03493563       0.41289034      -1.48509735
H        0.00060033       0.25769455       1.23513630
H        1.80244015      -1.71250185       0.61027288
H        2.50682020      -0.31670510      -0.29925480
H        0.86125248      -1.38119856      -1.56326983
H       -0.55673185      -2.17220203       0.52257393
H       -1.77490585      -1.19360626      -0.42092354
H       -0.99211879       1.64561252       1.47995938
H       -2.09703971       0.62877584       0.63332683
H        0.37610890       2.08264101      -0.36639074
H       -1.20468476       2.03716038      -1.16027216
17
Frame=4 idx=010931 GeodesicLength=0.5541012589357692 rxn_smarts="[O:1]([C:2]([C@@:3]1([H:11])[C:4]([H:12])([H:13])[C:5]([H:14])([H:15])[C:6]([H:16])([H:17])[O:7]1)([H:9])[H:10])[H:8]>>[C:3](=[C:4]([H:12])[H:13])([O:7][C:6]([C:5]([H:8])([H:14])[H:15])([H:16])[H:17])[H:11].[O:1]=[C:2]([H:9])[H:10]"
O        1.43267392       0.14194462       1.33751272
C        1.69211105      -0.66100926       0.34932125
C        0.32149780      -0.74873795      -0.85094478
C       -0.74634209      -1.32616177      -0.13463364
C       -1.04931033       0.88579443       0.69477439
C       -0.49966846       1.45552535      -0.59601205
O       -0.05042738       0.42387574      -1.47982864
H        0.04857711       0.28846588       1.24758606
H        1.77247462      -1.71825024       0.66353506
H        2.54593267      -0.39954968      -0.29356320
H        0.85590243      -1.35296951      -1.58128156
H       -0.55079267      -2.18626158       0.49681907
H       -1.77617033      -1.22542277      -0.43798071
H       -1.02089456       1.64872441       1.47996570
H       -2.10586324       0.63234263       0.63040935
H        0.35608776       2.09693806      -0.36896888
H       -1.22578829       2.04475165      -1.15671014
17
Frame=5 idx=010931 GeodesicLength=0.6917237036529077 rxn_smarts="[O:1]([C:2]([C@@:3]1([H:11])[C:4]([H:12])([H:13])[C:5]([H:14])([H:15])[C:6]([H:16])([H:17])[O:7]1)([H:9])[H:10])[H:8]>>[C:3](=[C:4]([H:12])[H:13])([O:7][C:6]([C:5]([H:8])([H:14])[H:15])([H:16])[H:17])[H:11].[O:1]=[C:2]([H:9])[H:10]"
O        1.48556127       0.17124849       1.31714773
C        1.70837103      -0.67563402       0.35693832
C        0.31801394      -0.73754683      -0.85280922
C       -0.74704728      -1.32593539      -0.14045466
C       -1.05646309       0.88597023       0.69636606
C       -0.51803882       1.46513119      -0.59478454
O       -0.06636104       0.43521991      -1.47453421
H        0.09952113       0.32231929       1.25822583
H        1.74026609      -1.71974803       0.72011097
H        2.58188192      -0.48847017      -0.28485742
H        0.85136156      -1.32335006      -1.59893779
H       -0.54463982      -2.20031854       0.46912701
H       -1.77614763      -1.25810749      -0.45695358
H       -1.04845285       1.65019056       1.48096032
H       -2.11446165       0.63534353       0.62852811
H        0.33493561       2.11177720      -0.37159311
H       -1.24830037       2.05191012      -1.15247982
17
Frame=6 idx=010931 GeodesicLength=0.8289295995002378 rxn_smarts="[O:1]([C:2]([C@@:3]1([H:11])[C:4]([H:12])([H:13])[C:5]([H:14])([H:15])[C:6]([H:16])([H:17])[O:7]1)([H:9])[H:10])[H:8]>>[C:3](=[C:4]([H:12])[H:13])([O:7][C:6]([C:5]([H:8])([H:14])[H:15])([H:16])[H:17])[H:11].[O:1]=[C:2]([H:9])[H:10]"
O        1.54089092       0.20097253       1.29250555
C        1.72430576      -0.69108845       0.36520303
C        0.31462199      -0.72586102      -0.85494601
C       -0.74782213      -1.32591920      -0.14742375
C       -1.06324253       0.88556113       0.69843250
C       -0.53721793       1.47468118      -0.59320740
O       -0.08280009       0.44689493      -1.46924069
H        0.15373529       0.35952348       1.26664179
H        1.70561901      -1.71618978       0.78002278
H        2.61377092      -0.58356290      -0.27238478
H        0.84784293      -1.29222036      -1.61620192
H       -0.53812252      -2.21431019       0.43939109
H       -1.77473254      -1.29163417      -0.47802542
H       -1.07448109       1.64987806       1.48306928
H       -2.12270986       0.63766149       0.62786780
H        0.31263142       2.12706495      -0.37426336
H       -1.27228957       2.05854832      -1.14744048
17
Frame=7 idx=010931 GeodesicLength=0.9657048049439794 rxn_smarts="[O:1]([C:2]([C@@:3]1([H:11])[C:4]([H:12])([H:13])[C:5]([H:14])([H:15])[C:6]([H:16])([H:17])[O:7]1)([H:9])[H:10])[H:8]>>[C:3](=[C:4]([H:12])[H:13])([O:7][C:6]([C:5]([H:8])([H:14])[H:15])([H:16])[H:17])[H:11].[O:1]=[C:2]([H:9])[H:10]"
O        1.59873122       0.23064797       1.26311340
C        1.73971895      -0.70743581       0.37427968
C        0.31129844      -0.71371027      -0.85746012
C       -0.74868075      -1.32624520      -0.15577700
C       -1.06948664       0.88441376       0.70102303
C       -0.55719954       1.48407533      -0.59122026
O       -0.09979874       0.45886224      -1.46399264
H        0.21156710       0.40039388       1.27233433
H        1.66829334      -1.70669812       0.84314649
H        2.64059525      -0.68473702      -0.25528968
H        0.84558986      -1.25946695      -1.63304829
H       -0.53108981      -2.22811052       0.40761955
H       -1.77183009      -1.32600753      -0.50142021
H       -1.09863331       1.64761617       1.48644797
H       -2.13045548       0.63914019       0.62863351
H        0.28917994       2.14269401      -0.37696402
H       -1.29779976       2.06456788      -1.14142573
17
Frame=8 idx=010931 GeodesicLength=1.1020606557981298 rxn_smarts="[O:1]([C:2]([C@@:3]1([H:11])[C:4]([H:12])([H:13])[C:5]([H:14])([H:15])[C:6]([H:16])([H:17])[O:7]1)([H:9])[H:10])[H:8]>>[C:3](=[C:4]([H:12])[H:13])([O:7][C:6]([C:5]([H:8])([H:14])[H:15])([H:16])[H:17])[H:11].[O:1]=[C:2]([H:9])[H:10]"
O        1.65908498       0.25960530       1.22855009
C        1.75437188      -0.72471914       0.38436497
C        0.30800536      -0.70115021      -0.86047018
C       -0.74965072      -1.32706675      -0.16577515
C       -1.07501468       0.88235184       0.70418427
C       -0.57795024       1.49319277      -0.58874711
O       -0.11741399       0.47106371      -1.45883473
H        0.27337494       0.44524331       1.27468213
H        1.62809142      -1.69030206       0.90911843
H        2.66126697      -0.79163890      -0.23259686
H        0.84486180      -1.22498921      -1.64943024
H       -0.52338424      -2.24156315       0.37393474
H       -1.76737555      -1.36123589      -0.52736533
H       -1.12052537       1.64320474       1.49125251
H       -2.13753578       0.63961754       0.63102755
H        0.26463029       2.15851271      -0.37965954
H       -1.32483707       2.06987339      -1.13423553
17
Frame=9 idx=010931 GeodesicLength=1.2379716464649424 rxn_smarts="[O:1]([C:2]([C@@:3]1([H:11])[C:4]([H:12])([H:13])[C:5]([H:14])([H:15])[C:6]([H:16])([H:17])[O:7]1)([H:9])[H:10])[H:8]>>[C:3](=[C:4]([H:12])[H:13])([O:7][C:6]([C:5]([H:8])([H:14])[H:15])([H:16])[H:17])[H:11].[O:1]=[C:2]([H:9])[H:10]"
O        1.72178201       0.28692988       1.18856870
C        1.76797310      -0.74295608       0.39568407
C        0.30468454      -0.68828592      -0.86411058
C       -0.75076704      -1.32856546      -0.17767914
C       -1.07963628       0.87919605       0.70795117
C       -0.59938376       1.50190949      -0.58569551
O       -0.13569684       0.48341639      -1.45382426
H        0.33944895       0.49432842       1.27293261
H        1.58494450      -1.66604754       0.97728378
H        2.67466146      -0.90346700      -0.20334424
H        0.84590372      -1.18874873      -1.66529664
H       -0.51486988      -2.25447957       0.33865099
H       -1.76130931      -1.39737560      -0.55606887
H       -1.13975160       1.63643624       1.49764836
H       -2.14377307       0.63895794       0.63522335
H        0.23909837       2.17432888      -0.38227737
H       -1.35330887       2.07442261      -1.12564642
17
Frame=10 idx=010931 GeodesicLength=1.3735486107807156 rxn_smarts="[O:1]([C:2]([C@@:3]1([H:11])[C:4]([H:12])([H:13])[C:5]([H:14])([H:15])[C:6]([H:16])([H:17])[O:7]1)([H:9])[H:10])[H:8]>>[C:3](=[C:4]([H:12])[H:13])([O:7][C:6]([C:5]([H:8])([H:14])[H:15])([H:16])[H:17])[H:11].[O:1]=[C:2]([H:9])[H:10]"
O        1.78658783       0.31155618       1.14318354
C        1.78020190      -0.76205115       0.40848034
C        0.30125605      -0.67524312      -0.86852065
C       -0.75208686      -1.33090653      -0.19174092
C       -1.08316276       0.87475115       0.71235817
C       -0.62138132       1.51007696      -0.58197068
O       -0.15468711       0.49581629      -1.44901252
H        0.41008568       0.54782387       1.26623639
H        1.53883635      -1.63307170       1.04656898
H        2.67968958      -1.01904751      -0.16648727
H        0.84891034      -1.15073394      -1.68056628
H       -0.50545653      -2.26664521       0.30223298
H       -1.75360231      -1.43450433      -0.58776187
H       -1.15586167       1.62708728       1.50578640
H       -2.14900161       0.63702266       0.64139242
H        0.21275605       2.18992066      -0.38473942
H       -1.38308361       2.07814845      -1.11543961
17
Frame=11 idx=010931 GeodesicLength=1.5088652487579117 rxn_smarts="[O:1]([C:2]([C@@:3]1([H:11])[C:4]([H:12])([H:13])[C:5]([H:14])([H:15])[C:6]([H:16])([H:17])[O:7]1)([H:9])[H:10])[H:8]>>[C:3](=[C:4]([H:12])[H:13])([O:7][C:6]([C:5]([H:8])([H:14])[H:15])([H:16])[H:17])[H:11].[O:1]=[C:2]([H:9])[H:10]"
O        1.85302214       0.33225375       1.09274875
C        1.79072929      -0.78180582       0.42299604
C        0.29759608      -0.66219793      -0.87382532
C       -0.75370037      -1.33423776      -0.20813727
C       -1.08544195       0.86885401       0.71739871
C       -0.64373880       1.51754886      -0.57744863
O       -0.17441288       0.50812438      -1.44443365
H        0.48541278       0.60561749       1.25362333
H        1.49005403      -1.59065900       1.11561046
H        2.67540938      -1.13662666      -0.12118169
H        0.85392935      -1.11103020      -1.69515604
H       -0.49517209      -2.27785430       0.26531120
H       -1.74422071      -1.47277903      -0.62261808
H       -1.16841705       1.61496216       1.51578950
H       -2.15308250       0.63375331       0.64959697
H        0.18588918       2.20501687      -0.38688909
H       -1.41385588       2.08105985      -1.10338519
17
Frame=12 idx=010931 GeodesicLength=1.6440701881529751 rxn_smarts="[O:1]([C:2]([C@@:3]1([H:11])[C:4]([H:12])([H:13])[C:5]([H:14])([H:15])[C:6]([H:16])([H:17])[O:7]1)([H:9])[H:10])[H:8]>>[C:3](=[C:4]([H:12])[H:13])([O:7][C:6]([C:5]([H:8])([H:14])[H:15])([H:16])[H:17])[H:11].[O:1]=[C:2]([H:9])[H:10]"
O        1.92050140       0.34776744       1.03797460
C        1.79926456      -0.80194375       0.43943117
C        0.29356825      -0.64933191      -0.88008131
C       -0.75567116      -1.33860168      -0.22691841
C       -1.08641973       0.86138251       0.72302318
C       -0.66624997       1.52418415      -0.57200946
O       -0.19489678       0.52020768      -1.44004705
H        0.56546549       0.66725515       1.23409998
H        1.43904542      -1.53852270       1.18265575
H        2.66121535      -1.25407898      -0.06672897
H        0.86086486      -1.06978260      -1.70888444
H       -0.48406489      -2.28789901       0.22857539
H       -1.73307852      -1.51225907      -0.66069946
H       -1.17706730       1.59990422       1.52765492
H       -2.15597005       0.62920590       0.65981446
H        0.15878243       2.21930802      -0.38855752
H       -1.44528934       2.08320462      -1.08930284
17
Frame=13 idx=010931 GeodesicLength=1.7793931796376878 rxn_smarts="[O:1]([C:2]([C@@:3]1([H:11])[C:4]([H:12])([H:13])[C:5]([H:14])([H:15])[C:6]([H:16])([H:17])[O:7]1)([H:9])[H:10])[H:8]>>[C:3](=[C:4]([H:12])[H:13])([O:7][C:6]([C:5]([H:8])([H:14])[H:15])([H:16])[H:17])[H:11].[O:1]=[C:2]([H:9])[H:10]"
O        1.98832465       0.35704944       0.97982306
C        1.80560087      -0.82206130       0.45792456
C        0.28900543      -0.63684830      -0.88735591
C       -0.75812294      -1.34404383      -0.24801476
C       -1.08618143       0.85226863       0.72917038
C       -0.68861453       1.52989504      -0.56549733
O       -0.21612814       0.53192968      -1.43581669
H        0.65012642       0.73186872       1.20670147
H        1.38654985      -1.47656802       1.24601323
H        2.63685472      -1.36904271      -0.00277096
H        0.86940741      -1.02721266      -1.72170223
H       -0.47237186      -2.29669378       0.19271219
H       -1.72008330      -1.55316810      -0.70199062
H       -1.18162839       1.58183778       1.54138999
H       -2.15776547       0.62350170       0.67188963
H        0.13186548       2.23253574      -0.38944261
H       -1.47683879       2.08475196      -1.07303340
17
Frame=14 idx=010931 GeodesicLength=1.9150705069721656 rxn_smarts="[O:1]([C:2]([C@@:3]1([H:11])[C:4]([H:12])([H:13])[C:5]([H:14])([H:15])[C:6]([H:16])([H:17])[O:7]1)([H:9])[H:10])[H:8]>>[C:3](=[C:4]([H:12])[H:13])([O:7][C:6]([C:5]([H:8])([H:14])[H:15])([H:16])[H:17])[H:11].[O:1]=[C:2]([H:9])[H:10]"
O        2.05587040       0.35922876       0.91926769
C        1.80961667      -0.84178615       0.47857134
C        0.28376409      -0.62488785      -0.89560447
C       -0.76111191      -1.35044039      -0.27122606
C       -1.08496859       0.84145295       0.73572817
C       -0.71058947       1.53460031      -0.55771961
O       -0.23810841       0.54320384      -1.43155920
H        0.73931498       0.79825946       1.17042917
H        1.33334597      -1.40502784       1.30399451
H        2.60243003      -1.47927228       0.07087489
H        0.87911907      -0.98353191      -1.73343444
H       -0.46028659      -2.30408962       0.15826974
H       -1.70498715      -1.59552982      -0.74636728
H       -1.18217182       1.56067379       1.55681427
H       -2.15871144       0.61684792       0.68553728
H        0.10548230       2.24438879      -0.38915726
H       -1.50800814       2.08591002      -1.05441874
17
Frame=15 idx=010931 GeodesicLength=2.051510532968464 rxn_smarts="[O:1]([C:2]([C@@:3]1([H:11])[C:4]([H:12])([H:13])[C:5]([H:14])([H:15])[C:6]([H:16])([H:17])[O:7]1)([H:9])[H:10])[H:8]>>[C:3](=[C:4]([H:12])[H:13])([O:7][C:6]([C:5]([H:8])([H:14])[H:15])([H:16])[H:17])[H:11].[O:1]=[C:2]([H:9])[H:10]"
O        2.12254310       0.35381043       0.85730392
C        1.81129503      -0.86069801       0.50136981
C        0.27769772      -0.61361581      -0.90490926
C       -0.76470008      -1.35784075      -0.29629367
C       -1.08325281       0.82894171       0.74266454
C       -0.73186212       1.53839058      -0.54847197
O       -0.26084695       0.55399635      -1.42722716
H        0.83289770       0.86500621       1.12443702
H        1.28048363      -1.32426946       1.35526399
H        2.55828485      -1.58273638       0.15419406
H        0.88944677      -0.93899072      -1.74426144
H       -0.44805476      -2.31023937       0.12573017
H       -1.68752670      -1.63965077      -0.79357669
H       -1.17915580       1.53645055       1.57391242
H       -2.15929082       0.60949246       0.70038118
H        0.08013446       2.25474216      -0.38714475
H       -1.53809323       2.08721083      -1.03337218
17
Frame=16 idx=010931 GeodesicLength=2.188880657420392 rxn_smarts="[O:1]([C:2]([C@@:3]1([H:11])[C:4]([H:12])([H:13])[C:5]([H:14])([H:15])[C:6]([H:16])([H:17])[O:7]1)([H:9])[H:10])[H:8]>>[C:3](=[C:4]([H:12])[H:13])([O:7][C:6]([C:5]([H:8])([H:14])[H:15])([H:16])[H:17])[H:11].[O:1]=[C:2]([H:9])[H:10]"
O        2.18788835       0.34040076       0.79453697
C        1.81055021      -0.87843119       0.52634017
C        0.27069914      -0.60305319      -0.91523860
C       -0.76884423      -1.36613384      -0.32294893
C       -1.08155674       0.81458057       0.74989656
C       -0.75216126       1.54127446      -0.53747885
O       -0.28436460       0.56435129      -1.42257957
H        0.93097640       0.93062025       1.06752397
H        1.22877800      -1.23472311       1.39858229
H        2.50485610      -1.67756135       0.24740730
H        0.89983920      -0.89365142      -1.75414983
H       -0.43582784      -2.31516257       0.09527262
H       -1.66737778      -1.68538781      -0.84314038
H       -1.17326468       1.50891387       1.59246966
H       -2.15999559       0.60155912       0.71595283
H        0.05624992       2.26330413      -0.38275008
H       -1.56644461       2.08910004      -1.00969613
