15
Frame=0 idx=006307 GeodesicLength=0.0 rxn_smarts="[C:1]([C:2]([O:3]/[C:4](=[N:5]/[C:6]([H:13])([H:14])[H:15])[H:12])([H:10])[H:11])([H:7])([H:8])[H:9]>>[C:1]([C:2]([N:5]([C:4](=[O:3])[H:12])[C:6]([H:13])([H:14])[H:15])([H:10])[H:11])([H:7])([H:8])[H:9]"
C       -1.98149043      -0.07825268      -0.48351367
C       -1.07214256      -0.90166553       0.35360231
O       -0.46161571       0.55081427       1.74336790
C        0.62721671       0.74031172       1.14460677
N        0.89438461       0.03895666       0.10313758
C        2.09396388       0.16492442      -0.68369967
H       -2.42981045       0.73460709       0.08184661
H       -1.47861855       0.32054735      -1.36187328
H       -2.78611665      -0.74070730      -0.82776463
H       -1.47134439      -1.25130210       1.29449735
H       -0.51875622      -1.66588161      -0.16949173
H        1.32103294       1.50379015       1.51928371
H        2.64611431      -0.77872917      -0.70122303
H        2.76537090       0.93842349      -0.29434718
H        1.85181160       0.42416323      -1.71842898
15
Frame=1 idx=006307 GeodesicLength=0.05139273611918538 rxn_smarts="[C:1]([C:2]([O:3]/[C:4](=[N:5]/[C:6]([H:13])([H:14])[H:15])[H:12])([H:10])[H:11])([H:7])([H:8])[H:9]>>[C:1]([C:2]([N:5]([C:4](=[O:3])[H:12])[C:6]([H:13])([H:14])[H:15])([H:10])[H:11])([H:7])([H:8])[H:9]"
C       -1.99021878      -0.08359256      -0.48317949
C       -1.05595617      -0.88531463       0.35082845
O       -0.47103126       0.57621664       1.72878140
C        0.63629271       0.73761628       1.15429539
N        0.90473597       0.02265404       0.12113290
C        2.09747290       0.15548841      -0.67443130
H       -2.45643519       0.71861737       0.08332177
H       -1.49856775       0.32825329      -1.36222826
H       -2.78261862      -0.76123007      -0.82515029
H       -1.44268781      -1.24863995       1.29227966
H       -0.51985968      -1.65655948      -0.18235271
H        1.30686863       1.53848626       1.49108768
H        2.62212996      -0.80134191      -0.74368754
H        2.79858858       0.88718368      -0.25841469
H        1.85128650       0.47216265      -1.69228297
15
Frame=2 idx=006307 GeodesicLength=0.10284070685040902 rxn_smarts="[C:1]([C:2]([O:3]/[C:4](=[N:5]/[C:6]([H:13])([H:14])[H:15])[H:12])([H:10])[H:11])([H:7])([H:8])[H:9]>>[C:1]([C:2]([N:5]([C:4](=[O:3])[H:12])[C:6]([H:13])([H:14])[H:15])([H:10])[H:11])([H:7])([H:8])[H:9]"
C       -1.99942289      -0.08926988      -0.48277295
C       -1.03984324      -0.86840232       0.34728735
O       -0.47983938       0.60184740       1.71278283
C        0.64397758       0.73767573       1.16216062
N        0.91472181       0.00743946       0.13891567
C        2.10091786       0.14630170      -0.66486350
H       -2.48296374       0.70179971       0.08523485
H       -1.52023855       0.33535819      -1.36291421
H       -2.77939584      -0.78201515      -0.82179056
H       -1.41324561      -1.24500130       1.28941195
H       -0.52029311      -1.64615694      -0.19519495
H        1.29541702       1.56766390       1.46430878
H        2.59754597      -0.82046204      -0.78425010
H        2.82956356       0.83517242      -0.22464176
H        1.85309856       0.51804912      -1.66367401
15
Frame=3 idx=006307 GeodesicLength=0.15414812153915802 rxn_smarts="[C:1]([C:2]([O:3]/[C:4](=[N:5]/[C:6]([H:13])([H:14])[H:15])[H:12])([H:10])[H:11])([H:7])([H:8])[H:9]>>[C:1]([C:2]([N:5]([C:4](=[O:3])[H:12])[C:6]([H:13])([H:14])[H:15])([H:10])[H:11])([H:7])([H:8])[H:9]"
C       -2.00909439      -0.09494911      -0.48188574
C       -1.02389863      -0.85117656       0.34267596
O       -0.48783111       0.62636969       1.69618739
C        0.65031617       0.73998709       1.16818259
N        0.92443661      -0.00693969       0.15647261
C        2.10464484       0.13706179      -0.65482229
H       -2.50904444       0.68425910       0.08855780
H       -1.54367034       0.34255787      -1.36334981
H       -2.77669201      -0.80237796      -0.81753663
H       -1.38313995      -1.24126553       1.28531263
H       -0.52030432      -1.63460205      -0.20895838
H        1.28502282       1.59399035       1.43714362
H        2.57313158      -0.83652996      -0.82201774
H        2.85838578       0.78283689      -0.19290720
H        1.85773740       0.56077809      -1.63305481
15
Frame=4 idx=006307 GeodesicLength=0.20534019633170952 rxn_smarts="[C:1]([C:2]([O:3]/[C:4](=[N:5]/[C:6]([H:13])([H:14])[H:15])[H:12])([H:10])[H:11])([H:7])([H:8])[H:9]>>[C:1]([C:2]([N:5]([C:4](=[O:3])[H:12])[C:6]([H:13])([H:14])[H:15])([H:10])[H:11])([H:7])([H:8])[H:9]"
C       -2.01895992      -0.10057616      -0.48090596
C       -1.00817402      -0.83368078       0.33718877
O       -0.49522491       0.65022373       1.67927424
C        0.65574469       0.74384788       1.17313584
N        0.93397423      -0.02088887       0.17418608
C        2.10824842       0.12791856      -0.64460004
H       -2.53435271       0.66652878       0.09263937
H       -1.56835230       0.34952549      -1.36408886
H       -2.77428340      -0.82231395      -0.81280213
H       -1.35278515      -1.23724713       1.28026109
H       -0.51992523      -1.62233333      -0.22326466
H        1.27647867       1.61720940       1.41115735
H        2.54936342      -0.84970229      -0.85689559
H        2.88451033       0.73162510      -0.16383285
H        1.86373787       0.59986356      -1.60145263
15
Frame=5 idx=006307 GeodesicLength=0.2565336171156883 rxn_smarts="[C:1]([C:2]([O:3]/[C:4](=[N:5]/[C:6]([H:13])([H:14])[H:15])[H:12])([H:10])[H:11])([H:7])([H:8])[H:9]>>[C:1]([C:2]([N:5]([C:4](=[O:3])[H:12])[C:6]([H:13])([H:14])[H:15])([H:10])[H:11])([H:7])([H:8])[H:9]"
C       -2.02909682      -0.10611688      -0.47956822
C       -0.99263095      -0.81571284       0.33062529
O       -0.50210566       0.67308943       1.66187492
C        0.66038182       0.74882996       1.17692807
N        0.94328785      -0.03411829       0.19195636
C        2.11184509       0.11873617      -0.63406235
H       -2.55910346       0.64816862       0.09788655
H       -1.59444559       0.35658900      -1.36447705
H       -2.77210098      -0.84173218      -0.80749746
H       -1.32210413      -1.23296192       1.27371063
H       -0.51908376      -1.60877118      -0.23847884
H        1.26930159       1.63791045       1.38580289
H        2.52658164      -0.86023678      -0.88830466
H        2.90803821       0.68160468      -0.13743995
H        1.87123514       0.63472175      -1.56895617
15
Frame=6 idx=006307 GeodesicLength=0.30784067697979645 rxn_smarts="[C:1]([C:2]([O:3]/[C:4](=[N:5]/[C:6]([H:13])([H:14])[H:15])[H:12])([H:10])[H:11])([H:7])([H:8])[H:9]>>[C:1]([C:2]([N:5]([C:4](=[O:3])[H:12])[C:6]([H:13])([H:14])[H:15])([H:10])[H:11])([H:7])([H:8])[H:9]"
C       -2.03960213      -0.11178538      -0.47803961
C       -0.97730078      -0.79729962       0.32315173
O       -0.50854902       0.69561044       1.64405703
C        0.66460100       0.75473265       1.18009285
N        0.95230411      -0.04656900       0.20964010
C        2.11548060       0.10956306      -0.62329399
H       -2.58345771       0.62923936       0.10406486
H       -1.62213140       0.36337720      -1.36494682
H       -2.77017775      -0.86112791      -0.80169092
H       -1.29115046      -1.22830537       1.26605810
H       -0.51781002      -1.59426374      -0.25441204
H        1.26347135       1.65679873       1.36114917
H        2.50413000      -0.86887458      -0.91749243
H        2.92980480       0.63196117      -0.11269296
H        1.88038742       0.66694298      -1.53564506
15
Frame=7 idx=006307 GeodesicLength=0.35990943653358737 rxn_smarts="[C:1]([C:2]([O:3]/[C:4](=[N:5]/[C:6]([H:13])([H:14])[H:15])[H:12])([H:10])[H:11])([H:7])([H:8])[H:9]>>[C:1]([C:2]([N:5]([C:4](=[O:3])[H:12])[C:6]([H:13])([H:14])[H:15])([H:10])[H:11])([H:7])([H:8])[H:9]"
C       -2.05231573      -0.11855730      -0.47570284
C       -0.96239138      -0.77782503       0.31427304
O       -0.51480726       0.71932202       1.62388342
C        0.66828260       0.76228198       1.18108368
N        0.95982310      -0.05577500       0.22407453
C        2.12057111       0.10057163      -0.61206570
H       -2.60946625       0.60814236       0.11214803
H       -1.65493400       0.36903683      -1.36534350
H       -2.76972226      -0.88234529      -0.79368467
H       -1.25863500      -1.22261038       1.25715625
H       -0.51619326      -1.57790926      -0.27170631
H        1.26039982       1.67334382       1.33812915
H        2.48081167      -0.87609445      -0.94519600
H        2.95155535       0.57903093      -0.08612304
H        1.89702148       0.69938714      -1.50092606
15
Frame=8 idx=006307 GeodesicLength=0.41185638254755813 rxn_smarts="[C:1]([C:2]([O:3]/[C:4](=[N:5]/[C:6]([H:13])([H:14])[H:15])[H:12])([H:10])[H:11])([H:7])([H:8])[H:9]>>[C:1]([C:2]([N:5]([C:4](=[O:3])[H:12])[C:6]([H:13])([H:14])[H:15])([H:10])[H:11])([H:7])([H:8])[H:9]"
C       -2.06446380      -0.12507141      -0.47335664
C       -0.94769239      -0.75802823       0.30467027
O       -0.52056235       0.74197023       1.60395702
C        0.67174345       0.76983119       1.18221213
N        0.96746415      -0.06538117       0.23959152
C        2.12504450       0.09158647      -0.60072989
H       -2.63373746       0.58736581       0.12061152
H       -1.68777358       0.37421924      -1.36578581
H       -2.76894180      -0.90262918      -0.78552385
H       -1.22665446      -1.21659957       1.24695634
H       -0.51422761      -1.56087131      -0.28940668
H        1.25788866       1.68857165       1.31561421
H        2.45872995      -0.88125835      -0.97036880
H        2.97057797       0.52831178      -0.06239502
H        1.91260474       0.72798285      -1.46604632
15
Frame=9 idx=006307 GeodesicLength=0.4639436016535901 rxn_smarts="[C:1]([C:2]([O:3]/[C:4](=[N:5]/[C:6]([H:13])([H:14])[H:15])[H:12])([H:10])[H:11])([H:7])([H:8])[H:9]>>[C:1]([C:2]([N:5]([C:4](=[O:3])[H:12])[C:6]([H:13])([H:14])[H:15])([H:10])[H:11])([H:7])([H:8])[H:9]"
C       -2.07707916      -0.13188406      -0.47064528
C       -0.93336094      -0.73760299       0.29408651
O       -0.52599037       0.76452781       1.58330961
C        0.67495098       0.77789504       1.18269774
N        0.97460088      -0.07405438       0.25453012
C        2.12975532       0.08263930      -0.58916822
H       -2.65762984       0.56581059       0.13017852
H       -1.72252698       0.37871970      -1.36602152
H       -2.76838221      -0.92313502      -0.77654949
H       -1.19461365      -1.20998102       1.23542236
H       -0.51201311      -1.54271723      -0.30795335
H        1.25659530       1.70254039       1.29388347
H        2.43712915      -0.88486597      -0.99365654
H        2.98810454       0.47758259      -0.03950240
H        1.93046009       0.75452525      -1.43061155
15
Frame=10 idx=006307 GeodesicLength=0.5164846892381275 rxn_smarts="[C:1]([C:2]([O:3]/[C:4](=[N:5]/[C:6]([H:13])([H:14])[H:15])[H:12])([H:10])[H:11])([H:7])([H:8])[H:9]>>[C:1]([C:2]([N:5]([C:4](=[O:3])[H:12])[C:6]([H:13])([H:14])[H:15])([H:10])[H:11])([H:7])([H:8])[H:9]"
C       -2.09151423      -0.13949311      -0.46685406
C       -0.91968165      -0.71628344       0.28202326
O       -0.53116334       0.78746429       1.56114126
C        0.67766806       0.78716993       1.18117398
N        0.98050512      -0.08035820       0.26661421
C        2.13609144       0.07365748      -0.57703192
H       -2.68249372       0.54232014       0.14230337
H       -1.76177899       0.38252727      -1.36540952
H       -2.76896440      -0.94481225      -0.76571274
H       -1.16163593      -1.20276385       1.22218976
H       -0.50988936      -1.52283828      -0.32838482
H        1.25630109       1.71603151       1.27200698
H        2.41615921      -0.88716071      -1.01560124
H        3.00520494       0.42398808      -0.01468599
H        1.95519176       0.78055114      -1.39377251
15
Frame=11 idx=006307 GeodesicLength=0.569031998204891 rxn_smarts="[C:1]([C:2]([O:3]/[C:4](=[N:5]/[C:6]([H:13])([H:14])[H:15])[H:12])([H:10])[H:11])([H:7])([H:8])[H:9]>>[C:1]([C:2]([N:5]([C:4](=[O:3])[H:12])[C:6]([H:13])([H:14])[H:15])([H:10])[H:11])([H:7])([H:8])[H:9]"
C       -2.10607893      -0.14729131      -0.46260392
C       -0.90642116      -0.69439350       0.26905422
O       -0.53600528       0.81007470       1.53862631
C        0.68012498       0.79682381       1.17908998
N        0.98597535      -0.08610311       0.27830182
C        2.14258890       0.06462098      -0.56464062
H       -2.70652984       0.51816366       0.15568709
H       -1.80247414       0.38578106      -1.36419675
H       -2.76937869      -0.96646289      -0.75429398
H       -1.12889284      -1.19507213       1.20752520
H       -0.50764429      -1.50191403      -0.34973357
H        1.25644729       1.72899919       1.25008794
H        2.39604791      -0.88792813      -1.03603519
H        3.02048150       0.37037150       0.00950755
H        1.98175923       0.80433021      -1.35637609
15
Frame=12 idx=006307 GeodesicLength=0.6220934436025449 rxn_smarts="[C:1]([C:2]([O:3]/[C:4](=[N:5]/[C:6]([H:13])([H:14])[H:15])[H:12])([H:10])[H:11])([H:7])([H:8])[H:9]>>[C:1]([C:2]([N:5]([C:4](=[O:3])[H:12])[C:6]([H:13])([H:14])[H:15])([H:10])[H:11])([H:7])([H:8])[H:9]"
C       -2.12199278      -0.15591213      -0.45741317
C       -0.89390950      -0.67155118       0.25475813
O       -0.54060231       0.83323929       1.51443485
C        0.68222483       0.80728510       1.17520242
N        0.99024177      -0.08983832       0.28727617
C        2.15032454       0.05569621      -0.55175831
H       -2.73077795       0.49241413       0.17109570
H       -1.84704695       0.38761443      -1.36218325
H       -2.77051934      -0.98912140      -0.74101477
H       -1.09563620      -1.18637946       1.19119191
H       -0.50567551      -1.47939825      -0.37252360
H        1.25778753       1.74115054       1.22849573
H        2.37678670      -0.88683307      -1.05563446
H        3.03458966       0.31407489       0.03527102
H        2.01420551       0.82755922      -1.31719838
15
Frame=13 idx=006307 GeodesicLength=0.6749048955767052 rxn_smarts="[C:1]([C:2]([O:3]/[C:4](=[N:5]/[C:6]([H:13])([H:14])[H:15])[H:12])([H:10])[H:11])([H:7])([H:8])[H:9]>>[C:1]([C:2]([N:5]([C:4](=[O:3])[H:12])[C:6]([H:13])([H:14])[H:15])([H:10])[H:11])([H:7])([H:8])[H:9]"
C       -2.13773967      -0.16469812      -0.45179901
C       -0.88191570      -0.64818824       0.23968641
O       -0.54492688       0.85610623       1.49007717
C        0.68408634       0.81799609       1.17086816
N        0.99405557      -0.09316401       0.29587398
C        2.15806794       0.04674633      -0.53871502
H       -2.75378900       0.46622715       0.18758355
H       -1.89254815       0.38864820      -1.35943534
H       -2.77123473      -1.01164196      -0.72729449
H       -1.06300718      -1.17718626       1.17346846
H       -0.50372159      -1.45596760      -0.39610643
H        1.25950402       1.75287670       1.20699644
H        2.35869235      -0.88421551      -1.07391328
H        3.04658467       0.25805897       0.06018928
H        2.04789198       0.84840202      -1.27747987
15
Frame=14 idx=006307 GeodesicLength=0.7275274104196912 rxn_smarts="[C:1]([C:2]([O:3]/[C:4](=[N:5]/[C:6]([H:13])([H:14])[H:15])[H:12])([H:10])[H:11])([H:7])([H:8])[H:9]>>[C:1]([C:2]([N:5]([C:4](=[O:3])[H:12])[C:6]([H:13])([H:14])[H:15])([H:10])[H:11])([H:7])([H:8])[H:9]"
C       -2.15301968      -0.17372492      -0.44586512
C       -0.87043200      -0.62428711       0.22404960
O       -0.54901666       0.87884412       1.46533890
C        0.68569510       0.82877563       1.16615896
N        0.99726320      -0.09599396       0.30402258
C        2.16554661       0.03791786      -0.52562383
H       -2.77522094       0.43979052       0.20466474
H       -1.93848488       0.38836793      -1.35614244
H       -2.77126305      -1.03405493      -0.71298926
H       -1.03120320      -1.16725133       1.15460792
H       -0.50179117      -1.43170672      -0.41999932
H        1.26181503       1.76376369       1.18602381
H        2.34128482      -0.87975264      -1.09135290
H        3.05625721       0.20205832       0.08414122
H        2.08256961       0.86725354      -1.23703485
15
Frame=15 idx=006307 GeodesicLength=0.7799269390941403 rxn_smarts="[C:1]([C:2]([O:3]/[C:4](=[N:5]/[C:6]([H:13])([H:14])[H:15])[H:12])([H:10])[H:11])([H:7])([H:8])[H:9]>>[C:1]([C:2]([N:5]([C:4](=[O:3])[H:12])[C:6]([H:13])([H:14])[H:15])([H:10])[H:11])([H:7])([H:8])[H:9]"
C       -2.16794517      -0.18298876      -0.43961146
C       -0.85950507      -0.59993823       0.20786593
O       -0.55284651       0.90150785       1.44032654
C        0.68709262       0.83968846       1.16101696
N        0.99983240      -0.09830210       0.31148644
C        2.17286932       0.02919566      -0.51248828
H       -2.79519289       0.41318060       0.22240358
H       -1.98499709       0.38677429      -1.35227664
H       -2.77072278      -1.05638949      -0.69815754
H       -1.00019083      -1.15668496       1.13467963
H       -0.49996454      -1.40675790      -0.44430503
H        1.26467257       1.77405582       1.16555489
H        2.32475151      -0.87366829      -1.10798489
H        3.06380433       0.14603066       0.10731018
H        2.11834214       0.88429638      -1.19582031
15
Frame=16 idx=006307 GeodesicLength=0.8320573438212225 rxn_smarts="[C:1]([C:2]([O:3]/[C:4](=[N:5]/[C:6]([H:13])([H:14])[H:15])[H:12])([H:10])[H:11])([H:7])([H:8])[H:9]>>[C:1]([C:2]([N:5]([C:4](=[O:3])[H:12])[C:6]([H:13])([H:14])[H:15])([H:10])[H:11])([H:7])([H:8])[H:9]"
C       -2.18228796      -0.19245114      -0.43304128
C       -0.84912946      -0.57521110       0.19128105
O       -0.55646674       0.92403351       1.41508398
C        0.68822045       0.85067772       1.15543726
N        1.00171695      -0.10013108       0.31831476
C        2.17990876       0.02058742      -0.49935160
H       -2.81356221       0.38638050       0.24071391
H       -2.03159457       0.38400697      -1.34764278
H       -2.76934908      -1.07853298      -0.68300367
H       -0.97014228      -1.14551741       1.11381914
H       -0.49826197      -1.38117948      -0.46884354
H        1.26791631       1.78376839       1.14542534
H        2.30902854      -0.86593778      -1.12386945
H        3.06909671       0.09005590       0.12955660
H        2.15490654       0.89945056      -1.15387972
