15
Frame=0 idx=008485 GeodesicLength=0.0 rxn_smarts="[C:1]([O:2][C:3](=[O:4])[C:5]([C:6]([O:7][H:15])([H:13])[H:14])([H:11])[H:12])([H:8])([H:9])[H:10]>>[C:1]([O:2][C:3](=[O:4])[C:5]([H:11])([H:12])[H:14])([H:8])([H:9])[H:10].[C:6]([O:7][H:15])[H:13]"
C       -2.75204526       0.36387314      -0.31450341
O       -1.54692851       0.30479159       0.44326572
C       -0.59981817      -0.52076109      -0.03767636
O       -0.74489066      -1.17278039      -1.04147756
C        0.63478179      -0.46530182       0.76908463
C        2.21383223       0.53737403      -0.46551691
O        3.37470736       0.04991446      -0.03203786
H       -3.23448871      -0.61339288      -0.34528914
H       -3.38747379       1.08349744       0.19551016
H       -2.54979988       0.68871941      -1.33530725
H        0.48748479      -0.11775291       1.78972152
H        1.20940160      -1.38109991       0.70925442
H        1.87021826      -0.07333471      -1.30508873
H        1.28348634       0.66894975       0.34401868
H        3.74153255       0.64730394       0.62604206
15
Frame=1 idx=008485 GeodesicLength=0.07553712455760078 rxn_smarts="[C:1]([O:2][C:3](=[O:4])[C:5]([C:6]([O:7][H:15])([H:13])[H:14])([H:11])[H:12])([H:8])([H:9])[H:10]>>[C:1]([O:2][C:3](=[O:4])[C:5]([H:11])([H:12])[H:14])([H:8])([H:9])[H:10].[C:6]([O:7][H:15])[H:13]"
C       -2.78816396       0.32957482      -0.30168107
O       -1.57733040       0.30081689       0.44863313
C       -0.59309269      -0.45862267      -0.06441835
O       -0.71059013      -1.07132936      -1.09607977
C        0.62825683      -0.41223243       0.76470992
C        2.25888243       0.49858730      -0.45932944
O        3.40320702      -0.02261770      -0.01809123
H       -3.22068108      -0.66876200      -0.37231915
H       -3.45682914       0.99400442       0.23977262
H       -2.60758014       0.70661978      -1.30852673
H        0.47361498      -0.03683958       1.77473394
H        1.16141051      -1.35534934       0.76063710
H        1.91604781      -0.08743502      -1.31669667
H        1.30982323       0.70484706       0.33207351
H        3.80302474       0.57873783       0.61658218
15
Frame=2 idx=008485 GeodesicLength=0.14915895747126812 rxn_smarts="[C:1]([O:2][C:3](=[O:4])[C:5]([C:6]([O:7][H:15])([H:13])[H:14])([H:11])[H:12])([H:8])([H:9])[H:10]>>[C:1]([O:2][C:3](=[O:4])[C:5]([H:11])([H:12])[H:14])([H:8])([H:9])[H:10].[C:6]([O:7][H:15])[H:13]"
C       -2.82152089       0.29154807      -0.28968768
O       -1.60569522       0.29823133       0.45298572
C       -0.58632735      -0.38972546      -0.09029089
O       -0.67788584      -0.96177333      -1.14745979
C        0.62212141      -0.35623601       0.76014783
C        2.30106941       0.45953560      -0.45058208
O        3.42669398      -0.09979034      -0.00490834
H       -3.20058199      -0.72484590      -0.39908473
H       -3.52112684       0.89687794       0.28115824
H       -2.66785510       0.71803912      -1.28115975
H        0.46140893       0.04691568       1.75886374
H        1.10831466      -1.32382682       0.80944992
H        1.95893226      -0.09664180      -1.32797343
H        1.33910312       0.74175078       0.32213580
H        3.86334947       0.49994115       0.60640546
15
Frame=3 idx=008485 GeodesicLength=0.2208902095877328 rxn_smarts="[C:1]([O:2][C:3](=[O:4])[C:5]([C:6]([O:7][H:15])([H:13])[H:14])([H:11])[H:12])([H:8])([H:9])[H:10]>>[C:1]([O:2][C:3](=[O:4])[C:5]([H:11])([H:12])[H:14])([H:8])([H:9])[H:10].[C:6]([O:7][H:15])[H:13]"
C       -2.85018445       0.25114089      -0.27949256
O       -1.63293462       0.29202103       0.45970175
C       -0.58039137      -0.31804404      -0.11172574
O       -0.64697066      -0.84715866      -1.19272659
C        0.61675308      -0.29828593       0.75713265
C        2.33773059       0.42017393      -0.44096726
O        3.44348023      -0.17946203       0.00516776
H       -3.17432027      -0.77857897      -0.43214718
H       -3.57903762       0.79262473       0.31824821
H       -2.72395928       0.72778535      -1.25181697
H        0.45187730       0.13349636       1.74356954
H        1.05261912      -1.28633724       0.85817612
H        1.99668668      -0.10212864      -1.33950078
H        1.36923941       0.77905227       0.31344542
H        3.91941186       0.41370094       0.59293562
15
Frame=4 idx=008485 GeodesicLength=0.29060362442096005 rxn_smarts="[C:1]([O:2][C:3](=[O:4])[C:5]([C:6]([O:7][H:15])([H:13])[H:14])([H:11])[H:12])([H:8])([H:9])[H:10]>>[C:1]([O:2][C:3](=[O:4])[C:5]([H:11])([H:12])[H:14])([H:8])([H:9])[H:10].[C:6]([O:7][H:15])[H:13]"
C       -2.87396750       0.20790345      -0.27090836
O       -1.65694109       0.28710149       0.46553248
C       -0.57481547      -0.24169307      -0.13033090
O       -0.61809750      -0.72652579      -1.23293558
C        0.61194752      -0.23867329       0.75522806
C        2.36904985       0.38114880      -0.43000048
O        3.45307413      -0.26193829       0.01210334
H       -3.14086552      -0.83119772      -0.46503953
H       -3.62868793       0.68292948       0.35075739
H       -2.77956352       0.73043007      -1.22306150
H        0.44425471       0.22125739       1.72884722
H        0.99399009      -1.24339256       0.90505395
H        2.02980176      -0.10191003      -1.35109373
H        1.40102926       0.81656829       0.30779605
H        3.96979121       0.31799178       0.57805160
15
Frame=5 idx=008485 GeodesicLength=0.35871600373435103 rxn_smarts="[C:1]([O:2][C:3](=[O:4])[C:5]([C:6]([O:7][H:15])([H:13])[H:14])([H:11])[H:12])([H:8])([H:9])[H:10]>>[C:1]([O:2][C:3](=[O:4])[C:5]([H:11])([H:12])[H:14])([H:8])([H:9])[H:10].[C:6]([O:7][H:15])[H:13]"
C       -2.89157786       0.16382271      -0.26496265
O       -1.67849074       0.27830104       0.47328502
C       -0.57046203      -0.16636257      -0.14268188
O       -0.59137703      -0.60425684      -1.26524347
C        0.60799964      -0.17908040       0.75623818
C        2.39284937       0.34230998      -0.41920317
O        3.45462984      -0.34441510       0.01438025
H       -3.10161241      -0.87902300      -0.50364978
H       -3.66951478       0.56965928       0.37671564
H       -2.82842277       0.73135948      -1.19363430
H        0.43897476       0.30959506       1.71599675
H        0.93559089      -1.19550263       0.95344333
H        2.05689537      -0.09776480      -1.36297855
H        1.43202679       0.85331545       0.30405607
H        4.01249096       0.21804234       0.55823856
15
Frame=6 idx=008485 GeodesicLength=0.42548541147540936 rxn_smarts="[C:1]([O:2][C:3](=[O:4])[C:5]([C:6]([O:7][H:15])([H:13])[H:14])([H:11])[H:12])([H:8])([H:9])[H:10]>>[C:1]([O:2][C:3](=[O:4])[C:5]([H:11])([H:12])[H:14])([H:8])([H:9])[H:10].[C:6]([O:7][H:15])[H:13]"
C       -2.90315907       0.11899871      -0.26156646
O       -1.69649867       0.26923518       0.48084224
C       -0.56691702      -0.09161550      -0.15005028
O       -0.56691990      -0.48090340      -1.29043653
C        0.60473484      -0.12008677       0.75998132
C        2.40947277       0.30433230      -0.40838077
O        3.44816392      -0.42673366       0.01186646
H       -3.05649207      -0.92296015      -0.54336914
H       -3.70069722       0.45501861       0.39617662
H       -2.87276831       0.72725331      -1.16579262
H        0.43538501       0.39696632       1.70522275
H        0.87780364      -1.14357047       1.00241913
H        2.07857223      -0.08829758      -1.37489245
H        1.46253773       0.88906825       0.30347400
H        4.04678214       0.11329486       0.53450574
15
Frame=7 idx=008485 GeodesicLength=0.4913446366931076 rxn_smarts="[C:1]([O:2][C:3](=[O:4])[C:5]([C:6]([O:7][H:15])([H:13])[H:14])([H:11])[H:12])([H:8])([H:9])[H:10]>>[C:1]([O:2][C:3](=[O:4])[C:5]([H:11])([H:12])[H:14])([H:8])([H:9])[H:10].[C:6]([O:7][H:15])[H:13]"
C       -2.90871282       0.07519583      -0.26127100
O       -1.71143563       0.25567596       0.48964586
C       -0.56442427      -0.02274534      -0.15102494
O       -0.54474790      -0.36156863      -1.30711400
C        0.60241751      -0.06306605       0.76745288
C        2.41825266       0.26741447      -0.39844686
O        3.43418056      -0.50643912       0.00420681
H       -3.00845435      -0.96026629      -0.58759676
H       -3.72253431       0.34185677       0.40820345
H       -2.90908286       0.72227788      -1.13868007
H        0.43323557       0.48318136       1.69674169
H        0.82346478      -1.08828370       1.05479469
H        2.09473145      -0.07486803      -1.38672721
H        1.49083509       0.92329682       0.30484241
H        4.07227449       0.00833808       0.50497303
15
Frame=8 idx=008485 GeodesicLength=0.5569623880214527 rxn_smarts="[C:1]([O:2][C:3](=[O:4])[C:5]([C:6]([O:7][H:15])([H:13])[H:14])([H:11])[H:12])([H:8])([H:9])[H:10]>>[C:1]([O:2][C:3](=[O:4])[C:5]([H:11])([H:12])[H:14])([H:8])([H:9])[H:10].[C:6]([O:7][H:15])[H:13]"
C       -2.90893641       0.03099894      -0.26332261
O       -1.72324390       0.24268817       0.49784118
C       -0.56256044       0.04446291      -0.14755296
O       -0.52437316      -0.24146937      -1.31722975
C        0.60056134      -0.00678014       0.77785358
C        2.42061420       0.23092008      -0.38870732
O        3.41226317      -0.58617931      -0.00759655
H       -2.95488584      -0.99405155      -0.63165518
H       -3.73622404       0.22811019       0.41368202
H       -2.94136932       0.71243529      -1.11367838
H        0.43211956       0.56871827       1.69002650
H        0.77072919      -1.02916216       1.10931554
H        2.10733210      -0.05655654      -1.39792927
H        1.51864976       0.95614204       0.30884758
H        4.08932381      -0.10027682       0.47010562
15
Frame=9 idx=008485 GeodesicLength=0.6222002119494956 rxn_smarts="[C:1]([O:2][C:3](=[O:4])[C:5]([C:6]([O:7][H:15])([H:13])[H:14])([H:11])[H:12])([H:8])([H:9])[H:10]>>[C:1]([O:2][C:3](=[O:4])[C:5]([H:11])([H:12])[H:14])([H:8])([H:9])[H:10].[C:6]([O:7][H:15])[H:13]"
C       -2.90422399      -0.01170358      -0.26833329
O       -1.73222387       0.22681639       0.50615076
C       -0.56136323       0.10574503      -0.13938889
O       -0.50607887      -0.12614975      -1.32011032
C        0.59900806       0.04724084       0.79182422
C        2.41622026       0.19515419      -0.37913761
O        3.38342010      -0.66297167      -0.02182186
H       -2.89943240      -1.02195914      -0.67801442
H       -3.74177254       0.11728372       0.41243004
H       -2.96736112       0.70143323      -1.09049653
H        0.43125427       0.65253091       1.68523594
H        0.72154419      -0.96750979       1.16739254
H        2.11628248      -0.03631729      -1.40711368
H        1.54453292       0.98698509       0.31524357
H        4.10019375      -0.20657819       0.42613955
15
Frame=10 idx=008485 GeodesicLength=0.6874091154037705 rxn_smarts="[C:1]([O:2][C:3](=[O:4])[C:5]([C:6]([O:7][H:15])([H:13])[H:14])([H:11])[H:12])([H:8])([H:9])[H:10]>>[C:1]([O:2][C:3](=[O:4])[C:5]([H:11])([H:12])[H:14])([H:8])([H:9])[H:10].[C:6]([O:7][H:15])[H:13]"
C       -2.89451804      -0.05405425      -0.27499378
O       -1.73771471       0.20866243       0.51450187
C       -0.55998969       0.16120702      -0.12749103
O       -0.48923241      -0.01584227      -1.31664538
C        0.59892815       0.10047479       0.80815720
C        2.40613312       0.16164611      -0.37167641
O        3.34680172      -0.73847569      -0.04338986
H       -2.84125426      -1.04605183      -0.72392148
H       -3.73971398       0.00915619       0.40556565
H       -2.98759071       0.68722399      -1.06891558
H        0.43165918       0.73659109       1.68060935
H        0.67746696      -0.90173608       1.22875948
H        2.12298842      -0.00838394      -1.41678293
H        1.56925563       1.01736850       0.32203286
H        4.09678062      -0.31778609       0.38419003
15
Frame=11 idx=008485 GeodesicLength=0.7527048998901453 rxn_smarts="[C:1]([O:2][C:3](=[O:4])[C:5]([C:6]([O:7][H:15])([H:13])[H:14])([H:11])[H:12])([H:8])([H:9])[H:10]>>[C:1]([O:2][C:3](=[O:4])[C:5]([H:11])([H:12])[H:14])([H:8])([H:9])[H:10].[C:6]([O:7][H:15])[H:13]"
C       -2.88083071      -0.09528576      -0.28360752
O       -1.74043262       0.18835268       0.52255380
C       -0.55879262       0.21206647      -0.11277292
O       -0.47426261       0.09079709      -1.30781158
C        0.59921378       0.15216313       0.82688601
C        2.39069574       0.12852460      -0.36475667
O        3.30377582      -0.81144540      -0.06631652
H       -2.78130431      -1.06552571      -0.77056885
H       -3.73093883      -0.09660468       0.39373969
H       -3.00344811       0.67164923      -1.04860468
H        0.43232517       0.81948855       1.67643669
H        0.63673962      -0.83322613       1.29256687
H        2.12809872       0.01984829      -1.42391422
H        1.59299055       1.04589634       0.33013192
H        4.08617042      -0.42669872       0.33603797
15
Frame=12 idx=008485 GeodesicLength=0.8184136456029549 rxn_smarts="[C:1]([O:2][C:3](=[O:4])[C:5]([C:6]([O:7][H:15])([H:13])[H:14])([H:11])[H:12])([H:8])([H:9])[H:10]>>[C:1]([O:2][C:3](=[O:4])[C:5]([H:11])([H:12])[H:14])([H:8])([H:9])[H:10].[C:6]([O:7][H:15])[H:13]"
C       -2.86307228      -0.13606496      -0.29357417
O       -1.74004580       0.16619607       0.53027134
C       -0.55740155       0.25934296      -0.09586803
O       -0.46094613       0.19405530      -1.29418541
C        0.60025445       0.20309478       0.84735454
C        2.37040862       0.09654650      -0.35904248
O        3.25362867      -0.88256137      -0.09218905
H       -2.71899320      -1.08146135      -0.81687524
H       -3.71553685      -0.20055935       0.37770104
H       -3.01534899       0.65378112      -1.02936730
H        0.43370883       0.90183757       1.67201511
H        0.59954131      -0.76142076       1.35799436
H        2.13222778       0.05011436      -1.42915029
H        1.61624963       1.07324489       0.33894247
H        4.06532553      -0.53614575       0.28597311
15
Frame=13 idx=008485 GeodesicLength=0.8849446701549459 rxn_smarts="[C:1]([O:2][C:3](=[O:4])[C:5]([C:6]([O:7][H:15])([H:13])[H:14])([H:11])[H:12])([H:8])([H:9])[H:10]>>[C:1]([O:2][C:3](=[O:4])[C:5]([H:11])([H:12])[H:14])([H:8])([H:9])[H:10].[C:6]([O:7][H:15])[H:13]"
C       -2.84100318      -0.17696249      -0.30460277
O       -1.73652397       0.14352914       0.53752656
C       -0.55579393       0.30523097      -0.07719084
O       -0.44927121       0.29531528      -1.27623826
C        0.60199462       0.25374576       0.86917598
C        2.34542837       0.06580873      -0.35461218
O        3.19555169      -0.95223755      -0.12105793
H       -2.65302002      -1.09488734      -0.86176078
H       -3.69329803      -0.30358929       0.35797599
H       -3.02390284       0.63241493      -1.01162896
H        0.43623219       0.98349093       1.66741078
H        0.56499269      -0.68639705       1.42380404
H        2.13566677       0.08209285      -1.43227614
H        1.63958711       1.09949824       0.34862589
H        4.03335974      -0.64705311       0.23484862
15
Frame=14 idx=008485 GeodesicLength=0.9524669394999865 rxn_smarts="[C:1]([O:2][C:3](=[O:4])[C:5]([C:6]([O:7][H:15])([H:13])[H:14])([H:11])[H:12])([H:8])([H:9])[H:10]>>[C:1]([O:2][C:3](=[O:4])[C:5]([H:11])([H:12])[H:14])([H:8])([H:9])[H:10].[C:6]([O:7][H:15])[H:13]"
C       -2.81503783      -0.21726761      -0.31707451
O       -1.73001544       0.11902025       0.54428216
C       -0.55435238       0.34991407      -0.05675772
O       -0.43942676       0.39435370      -1.25410809
C        0.60387549       0.30385085       0.89251126
C        2.31570136       0.03525873      -0.35031041
O        3.13114050      -1.01919896      -0.14849076
H       -2.58442950      -1.10428253      -0.90728261
H       -3.66435505      -0.40594679       0.33444920
H       -3.02936467       0.60963469      -0.99435091
H        0.43947482       1.06415261       1.66273976
H        0.53229803      -0.60857673       1.49001396
H        2.13735938       0.10982048      -1.43197493
H        1.66263829       1.12395225       0.35917110
H        3.99449376      -0.75468502       0.17718250
15
Frame=15 idx=008485 GeodesicLength=1.0214759758019596 rxn_smarts="[C:1]([O:2][C:3](=[O:4])[C:5]([C:6]([O:7][H:15])([H:13])[H:14])([H:11])[H:12])([H:8])([H:9])[H:10]>>[C:1]([O:2][C:3](=[O:4])[C:5]([H:11])([H:12])[H:14])([H:8])([H:9])[H:10].[C:6]([O:7][H:15])[H:13]"
C       -2.78456245      -0.25764864      -0.33019202
O       -1.72017333       0.09482335       0.55056160
C       -0.55296530       0.39506635      -0.03487045
O       -0.43123286       0.49078441      -1.22845029
C        0.60648535       0.35338039       0.91650136
C        2.28147706       0.00642661      -0.34754287
O        3.05899087      -1.08378070      -0.17878194
H       -2.51180932      -1.11167752      -0.95030051
H       -3.62828271      -0.50690127       0.30809302
H       -3.03147994       0.58291348      -0.97894060
H        0.44470041       1.14283563       1.65819687
H        0.50143564      -0.52880121       1.55463522
H        2.13808874       0.13787567      -1.42986878
H        1.68572716       1.14720696       0.37022067
H        3.94360066      -0.86250352       0.12073871
15
Frame=16 idx=008485 GeodesicLength=1.0926026976214855 rxn_smarts="[C:1]([O:2][C:3](=[O:4])[C:5]([C:6]([O:7][H:15])([H:13])[H:14])([H:11])[H:12])([H:8])([H:9])[H:10]>>[C:1]([O:2][C:3](=[O:4])[C:5]([H:11])([H:12])[H:14])([H:8])([H:9])[H:10].[C:6]([O:7][H:15])[H:13]"
C       -2.74910633      -0.29832914      -0.34396917
O       -1.70714402       0.07186140       0.55646985
C       -0.55204850       0.44220116      -0.01125355
O       -0.42475492       0.58553000      -1.19943026
C        0.60967601       0.40240183       0.94109204
C        2.24245638      -0.02086938      -0.34628741
O        2.97860210      -1.14588777      -0.21172685
H       -2.43393649      -1.11746563      -0.99045987
H       -3.58451505      -0.60701870       0.27906561
H       -3.03009213       0.55165553      -0.96601572
H        0.45248745       1.21933625       1.65430544
H        0.47168032      -0.44741704       1.61720922
H        2.13732803       0.16511410      -1.42594682
H        1.70889480       1.16902725       0.38171369
H        3.88047235      -0.97013985       0.06523380
