18
Frame=0 idx=001814 GeodesicLength=0.0 rxn_smarts="[C:1]([C:2]([C:3]([H:11])([H:12])[H:13])([C:4]1([H:14])[C:5]([H:15])([H:16])[C:6]1([H:17])[H:18])[H:10])([H:7])([H:8])[H:9]>>[C:1]([C:2]([C:3]([H:11])([H:12])[H:13])=[C:4]([C:6](=[C:5]([H:15])[H:16])[H:18])[H:14])([H:7])([H:8])[H:9].[H:10][H:17]"
C       -1.62985913       0.63886160       1.11183152
C       -0.58070100       0.14188798       0.16731602
C       -0.98531000      -0.99521068      -0.71338776
C        0.77848509       0.39928127       0.45755183
C        1.86869888      -0.75984369       0.07894185
C        1.79503663       0.47611087      -0.64111858
H       -1.28905084       1.50586551       1.67733062
H       -2.53428386       0.90869235       0.56400549
H       -1.91132996      -0.14493897       1.82519892
H       -0.32381802       1.18618255      -1.48301168
H       -0.32296545      -1.09940116      -1.57268970
H       -0.94952642      -1.93286703      -0.14136855
H       -2.00825745      -0.86875775      -1.06858152
H        0.96248383       1.01951454       1.32830854
H        2.70199902      -0.99989594       0.73927287
H        1.30889089      -1.63300974      -0.23543880
H        0.49023031       1.00524135      -1.63001776
H        2.62927751       1.15228701      -0.46414331
18
Frame=1 idx=001814 GeodesicLength=0.084920215448936 rxn_smarts="[C:1]([C:2]([C:3]([H:11])([H:12])[H:13])([C:4]1([H:14])[C:5]([H:15])([H:16])[C:6]1([H:17])[H:18])[H:10])([H:7])([H:8])[H:9]>>[C:1]([C:2]([C:3]([H:11])([H:12])[H:13])=[C:4]([C:6](=[C:5]([H:15])[H:16])[H:18])[H:14])([H:7])([H:8])[H:9].[H:10][H:17]"
C       -1.63511385       0.65285765       1.09805643
C       -0.58400214       0.14322145       0.16061578
C       -0.99243393      -1.00774627      -0.70152380
C        0.77519659       0.38526715       0.46716822
C        1.88640571      -0.76241558       0.05846973
C        1.79511604       0.49123194      -0.62518299
H       -1.29517081       1.52554480       1.65540628
H       -2.53724904       0.92038603       0.54506640
H       -1.92187480      -0.12179856       1.81900127
H       -0.33491931       1.18850141      -1.47375458
H       -0.33018377      -1.12574550      -1.55911136
H       -0.96343548      -1.93669560      -0.11570966
H       -2.01342344      -0.88226239      -1.06311033
H        0.95753251       0.98379655       1.35363305
H        2.74042230      -1.01211319       0.68745737
H        1.33178530      -1.64023161      -0.25119739
H        0.49899614       1.02642083      -1.62262849
H        2.62235197       1.17178088      -0.43265594
18
Frame=2 idx=001814 GeodesicLength=0.16994677562425237 rxn_smarts="[C:1]([C:2]([C:3]([H:11])([H:12])[H:13])([C:4]1([H:14])[C:5]([H:15])([H:16])[C:6]1([H:17])[H:18])[H:10])([H:7])([H:8])[H:9]>>[C:1]([C:2]([C:3]([H:11])([H:12])[H:13])=[C:4]([C:6](=[C:5]([H:15])[H:16])[H:18])[H:14])([H:7])([H:8])[H:9].[H:10][H:17]"
C       -1.64011371       0.66693902       1.08400068
C       -0.58737770       0.14450835       0.15353233
C       -0.99983887      -1.02044543      -0.68920214
C        0.77156465       0.37078107       0.47656272
C        1.90409827      -0.76431646       0.03758999
C        1.79516571       0.50621461      -0.60832022
H       -1.30051163       1.54508493       1.63308438
H       -2.53996192       0.93223550       0.52595042
H       -1.93225118      -0.09835714       1.81248636
H       -0.34576191       1.19043147      -1.46515805
H       -0.33749283      -1.15323473      -1.54456012
H       -0.97807897      -1.94016809      -0.08925395
H       -2.01873999      -0.89587788      -1.05741856
H        0.95175569       0.94670907       1.37862076
H        2.77860681      -1.02260713       0.63353558
H        1.35512323      -1.64698486      -0.26745905
H        0.50855266       1.04849544      -1.61461308
H        2.61526169       1.19059226      -0.39937804
18
Frame=3 idx=001814 GeodesicLength=0.25514336121463405 rxn_smarts="[C:1]([C:2]([C:3]([H:11])([H:12])[H:13])([C:4]1([H:14])[C:5]([H:15])([H:16])[C:6]1([H:17])[H:18])[H:10])([H:7])([H:8])[H:9]>>[C:1]([C:2]([C:3]([H:11])([H:12])[H:13])=[C:4]([C:6](=[C:5]([H:15])[H:16])[H:18])[H:14])([H:7])([H:8])[H:9].[H:10][H:17]"
C       -1.64483160       0.68107987       1.06965633
C       -0.59081420       0.14571696       0.14604473
C       -1.00754038      -1.03331039      -0.67640942
C        0.76758087       0.35584254       0.48569552
C        1.92176594      -0.76551115       0.01633335
C        1.79519180       0.52099952      -0.59050759
H       -1.30503948       1.56443980       1.61037008
H       -2.54239975       0.94422692       0.50666058
H       -1.94242740      -0.07463443       1.80564399
H       -0.35633616       1.19194921      -1.45725805
H       -0.34487888      -1.18192085      -1.52894265
H       -0.99353560      -1.94324116      -0.06199298
H       -2.02420024      -0.90959046      -1.05153330
H        0.94510969       0.90828832       1.40314397
H        2.81648690      -1.03124223       0.57745216
H        1.37891029      -1.65323716      -0.28418356
H        0.51894056       1.07154900      -1.60588557
H        2.60801765       1.20859569      -0.36428760
18
Frame=4 idx=001814 GeodesicLength=0.34051968600053595 rxn_smarts="[C:1]([C:2]([C:3]([H:11])([H:12])[H:13])([C:4]1([H:14])[C:5]([H:15])([H:16])[C:6]1([H:17])[H:18])[H:10])([H:7])([H:8])[H:9]>>[C:1]([C:2]([C:3]([H:11])([H:12])[H:13])=[C:4]([C:6](=[C:5]([H:15])[H:16])[H:18])[H:14])([H:7])([H:8])[H:9].[H:10][H:17]"
C       -1.64924039       0.69525411       1.05500997
C       -0.59430073       0.14680678       0.13813470
C       -1.01555638      -1.04634875      -0.66313003
C        0.76323611       0.34046719       0.49452905
C        1.93938989      -0.76596709      -0.00526472
C        1.79519747       0.53551784      -0.57171698
H       -1.30871672       1.58357165       1.58725231
H       -2.54453863       0.95634434       0.48718988
H       -1.95236923      -0.05064423       1.79846347
H       -0.36662104       1.19301724      -1.45009526
H       -0.35233016      -1.21186851      -1.51214797
H       -1.00989342      -1.94586683      -0.03391741
H       -2.02979417      -0.92338913      -1.04549114
H        0.93754870       0.86858320       1.42706906
H        2.85400180      -1.03783971       0.51910159
H        1.40315502      -1.65896171      -0.30132822
H        0.53019042       1.09569252      -1.59630977
H        2.60064145       1.22563111      -0.32734854
18
Frame=5 idx=001814 GeodesicLength=0.4255074868833906 rxn_smarts="[C:1]([C:2]([C:3]([H:11])([H:12])[H:13])([C:4]1([H:14])[C:5]([H:15])([H:16])[C:6]1([H:17])[H:18])[H:10])([H:7])([H:8])[H:9]>>[C:1]([C:2]([C:3]([H:11])([H:12])[H:13])=[C:4]([C:6](=[C:5]([H:15])[H:16])[H:18])[H:14])([H:7])([H:8])[H:9].[H:10][H:17]"
C       -1.65332060       0.70944911       1.04002268
C       -0.59779807       0.14770190       0.12981251
C       -1.02389205      -1.05958317      -0.64933000
C        0.75856466       0.32462172       0.50305465
C        1.95697036      -0.76567512      -0.02723461
C        1.79514535       0.54974055      -0.55200388
H       -1.31155314       1.60248728       1.56369963
H       -2.54633419       0.96857868       0.46745903
H       -1.96208894      -0.02636015       1.79091986
H       -0.37648306       1.19352300      -1.44371500
H       -0.35983064      -1.24317297      -1.49396929
H       -1.02724037      -1.94801768      -0.00502351
H       -2.03547414      -0.93727715      -1.03933733
H        0.92912792       0.82761388       1.45036045
H        2.89100946      -1.04225806       0.45853064
H        1.42787724      -1.66411649      -0.31899120
H        0.54216570       1.12118188      -1.58559412
H        2.59315450       1.24156280      -0.28866053
18
Frame=6 idx=001814 GeodesicLength=0.5105180258340833 rxn_smarts="[C:1]([C:2]([C:3]([H:11])([H:12])[H:13])([C:4]1([H:14])[C:5]([H:15])([H:16])[C:6]1([H:17])[H:18])[H:10])([H:7])([H:8])[H:9]>>[C:1]([C:2]([C:3]([H:11])([H:12])[H:13])=[C:4]([C:6](=[C:5]([H:15])[H:16])[H:18])[H:14])([H:7])([H:8])[H:9].[H:10][H:17]"
C       -1.65704203       0.72363731       1.02468125
C       -0.60130973       0.14837703       0.12104632
C       -1.03256651      -1.07301164      -0.63499797
C        0.75353649       0.30835553       0.51123345
C        1.97447993      -0.76458814      -0.04950143
C        1.79506341       0.56356488      -0.53127829
H       -1.31349959       1.62114303       1.53968003
H       -2.54777768       0.98089447       0.44748115
H       -1.97151825      -0.00180090       1.78301266
H       -0.38593414       1.19345689      -1.43815150
H       -0.36735274      -1.27587538      -1.47431588
H       -1.04565760      -1.94962389       0.02471816
H       -2.04123523      -0.95125781      -1.03311054
H        0.91975590       0.78545804       1.47283785
H        2.92744172      -1.04430248       0.39545727
H        1.45306876      -1.66868202      -0.33704764
H        0.55497458       1.14804518      -1.57363704
H        2.58557269       1.25620989      -0.24810786
18
Frame=7 idx=001814 GeodesicLength=0.5955343788296547 rxn_smarts="[C:1]([C:2]([C:3]([H:11])([H:12])[H:13])([C:4]1([H:14])[C:5]([H:15])([H:16])[C:6]1([H:17])[H:18])[H:10])([H:7])([H:8])[H:9]>>[C:1]([C:2]([C:3]([H:11])([H:12])[H:13])=[C:4]([C:6](=[C:5]([H:15])[H:16])[H:18])[H:14])([H:7])([H:8])[H:9].[H:10][H:17]"
C       -1.66038426       0.73779478       1.00895828
C       -0.60481376       0.14878037       0.11182613
C       -1.04158711      -1.08664367      -0.62010895
C        0.74815714       0.29168327       0.51904404
C        1.99190501      -0.76269081      -0.07204309
C        1.79495379       0.57691978      -0.50953713
H       -1.31455229       1.63952332       1.51514954
H       -2.54884633       0.99325746       0.42721853
H       -1.98063018       0.02303421       1.77472810
H       -0.39491133       1.19277385      -1.43342851
H       -0.37487296      -1.31002469      -1.45302542
H       -1.06522127      -1.95063440       0.05531438
H       -2.04704474      -0.96533496      -1.02686321
H        0.90942240       0.74219046       1.49440720
H        2.96316403      -1.04381932       0.32975642
H        1.47873939      -1.67263557      -0.35545449
H        0.56859560       1.17641200      -1.56021996
H        2.57792688       1.26941392      -0.20572187
18
Frame=8 idx=001814 GeodesicLength=0.6805966469214675 rxn_smarts="[C:1]([C:2]([C:3]([H:11])([H:12])[H:13])([C:4]1([H:14])[C:5]([H:15])([H:16])[C:6]1([H:17])[H:18])[H:10])([H:7])([H:8])[H:9]>>[C:1]([C:2]([C:3]([H:11])([H:12])[H:13])=[C:4]([C:6](=[C:5]([H:15])[H:16])[H:18])[H:14])([H:7])([H:8])[H:9].[H:10][H:17]"
C       -1.66332275       0.75189426       0.99281921
C       -0.60829527       0.14885281       0.10214347
C       -1.05096280      -1.10048471      -0.60464353
C        0.74242816       0.27461770       0.52647343
C        2.00923185      -0.75996374      -0.09483099
C        1.79482414       0.58971510      -0.48676119
H       -1.31470010       1.65760978       1.49005123
H       -2.54951404       1.00563297       0.40663091
H       -1.98938561       0.04815069       1.76605047
H       -0.40334633       1.19142412      -1.42956850
H       -0.38236454      -1.34567767      -1.42992706
H       -1.08600848      -1.95097183       0.08678036
H       -2.05286966      -0.97952121      -1.02065119
H        0.89810802       0.69790009       1.51496695
H        2.99799735      -1.04057465       0.26124267
H        1.50489937      -1.67596473      -0.37417548
H        0.58301696       1.20638737      -1.54509838
H        2.57026374       1.28097364      -0.16150237
18
Frame=9 idx=001814 GeodesicLength=0.7650168682667853 rxn_smarts="[C:1]([C:2]([C:3]([H:11])([H:12])[H:13])([C:4]1([H:14])[C:5]([H:15])([H:16])[C:6]1([H:17])[H:18])[H:10])([H:7])([H:8])[H:9]>>[C:1]([C:2]([C:3]([H:11])([H:12])[H:13])=[C:4]([C:6](=[C:5]([H:15])[H:16])[H:18])[H:14])([H:7])([H:8])[H:9].[H:10][H:17]"
C       -1.66582531       0.76590218       0.97623572
C       -0.61168672       0.14851559       0.09202385
C       -1.06068929      -1.11453380      -0.58859485
C        0.73643461       0.25712102       0.53350350
C        2.02646238      -0.75640527      -0.11798428
C        1.79459463       0.60194079      -0.46312813
H       -1.31393918       1.67538873       1.46435884
H       -2.54973039       1.01797832       0.38565114
H       -1.99778658       0.07355709       1.75695314
H       -0.41104052       1.18936215      -1.42655090
H       -0.38981489      -1.38285317      -1.40474445
H       -1.10812024      -1.95059311       0.11900402
H       -2.05859948      -0.99383331      -1.01455741
H        0.88598365       0.65264531       1.53451459
H        3.03170072      -1.03452366       0.19041631
H        1.53154323      -1.67859583      -0.39337198
H        0.59791427       1.23814591      -1.52795024
H        2.56259909       1.29078107      -0.11577890
18
Frame=10 idx=001814 GeodesicLength=0.8494267955290171 rxn_smarts="[C:1]([C:2]([C:3]([H:11])([H:12])[H:13])([C:4]1([H:14])[C:5]([H:15])([H:16])[C:6]1([H:17])[H:18])[H:10])([H:7])([H:8])[H:9]>>[C:1]([C:2]([C:3]([H:11])([H:12])[H:13])=[C:4]([C:6](=[C:5]([H:15])[H:16])[H:18])[H:14])([H:7])([H:8])[H:9].[H:10][H:17]"
C       -1.66788049       0.77980001       0.95915964
C       -0.61500684       0.14773542       0.08143381
C       -1.07076907      -1.12879750      -0.57192855
C        0.73012206       0.23926054       0.54014396
C        2.04355780      -0.75198673      -0.14136081
C        1.79433743       0.61343412      -0.43847054
H       -1.31226720       1.69285365       1.43796097
H       -2.54949925       1.03023670       0.36423691
H       -2.00576203       0.09926127       1.74742300
H       -0.41796904       1.18657332      -1.42439667
H       -0.39717797      -1.42158587      -1.37733351
H       -1.13160563      -1.94938337       0.15206939
H       -2.06421810      -1.00830604      -1.00864010
H        0.87289977       0.60656993       1.55290722
H        3.06408314      -1.02530032       0.11648554
H        1.55868136      -1.68056325      -0.41281212
H        0.61347246       1.27164062      -1.50855187
H        2.55500161       1.29855752      -0.06832629
18
Frame=11 idx=001814 GeodesicLength=0.933827918930248 rxn_smarts="[C:1]([C:2]([C:3]([H:11])([H:12])[H:13])([C:4]1([H:14])[C:5]([H:15])([H:16])[C:6]1([H:17])[H:18])[H:10])([H:7])([H:8])[H:9]>>[C:1]([C:2]([C:3]([H:11])([H:12])[H:13])=[C:4]([C:6](=[C:5]([H:15])[H:16])[H:18])[H:14])([H:7])([H:8])[H:9].[H:10][H:17]"
C       -1.66947006       0.79355082       0.94155620
C       -0.61822369       0.14646428       0.07037691
C       -1.08118826      -1.14325679      -0.55464321
C        0.72351246       0.22106693       0.54640105
C        2.06049895      -0.74670912      -0.16492256
C        1.79405299       0.62410321      -0.41280452
H       -1.30970388       1.70998728       1.41080365
H       -2.54880568       1.04233630       0.34234007
H       -2.01327314       0.12525366       1.73743769
H       -0.42402502       1.18307846      -1.42306136
H       -0.40441508      -1.46184518      -1.34748412
H       -1.15651105      -1.94726428       0.18592091
H       -2.06963585      -1.02296760      -1.00298415
H        0.85888090       0.55982646       1.57009931
H        3.09484151      -1.01273741       0.03930173
H        1.58631892      -1.68186200      -0.43239424
H        0.62962216       1.30685210      -1.48667367
H        2.54752381       1.30412287      -0.01926968
18
Frame=12 idx=001814 GeodesicLength=1.0182192888620296 rxn_smarts="[C:1]([C:2]([C:3]([H:11])([H:12])[H:13])([C:4]1([H:14])[C:5]([H:15])([H:16])[C:6]1([H:17])[H:18])[H:10])([H:7])([H:8])[H:9]>>[C:1]([C:2]([C:3]([H:11])([H:12])[H:13])=[C:4]([C:6](=[C:5]([H:15])[H:16])[H:18])[H:14])([H:7])([H:8])[H:9].[H:10][H:17]"
C       -1.67057847       0.80711466       0.92338132
C       -0.62130553       0.14465017       0.05885987
C       -1.09192033      -1.15789571      -0.53673254
C        0.71662738       0.20256422       0.55230455
C        2.07727748      -0.74057654      -0.18862283
C        1.79375734       0.63383685      -0.38615386
H       -1.30627199       1.72677097       1.38282162
H       -2.54762915       1.05420614       0.31989348
H       -2.02028654       0.15152982       1.72696344
H       -0.42908601       1.17889731      -1.42249639
H       -0.41147967      -1.50359531      -1.31495790
H       -1.18287785      -1.94412436       0.22050423
H       -2.07474939      -1.03785764      -0.99768641
H        0.84394967       0.51257355       1.58607617
H        3.12352549      -0.99654219      -0.04137068
H        1.61447530      -1.68249940      -0.45202417
H        0.64630506       1.34369998      -1.46203835
H        2.54026722       1.30724747       0.03127848
18
Frame=13 idx=001814 GeodesicLength=1.1021572248207245 rxn_smarts="[C:1]([C:2]([C:3]([H:11])([H:12])[H:13])([C:4]1([H:14])[C:5]([H:15])([H:16])[C:6]1([H:17])[H:18])[H:10])([H:7])([H:8])[H:9]>>[C:1]([C:2]([C:3]([H:11])([H:12])[H:13])=[C:4]([C:6](=[C:5]([H:15])[H:16])[H:18])[H:14])([H:7])([H:8])[H:9].[H:10][H:17]"
C       -1.67117718       0.82042811       0.90462696
C       -0.62417902       0.14224805       0.04691123
C       -1.10293046      -1.17266782      -0.51823407
C        0.70955660       0.18375558       0.55785883
C        2.09387427      -0.73360714      -0.21252205
C        1.79339909       0.64258557      -0.35869662
H       -1.30197631       1.74315614       1.35400770
H       -2.54593766       1.06575634       0.29687667
H       -2.02677797       0.17803400       1.71597298
H       -0.43299965       1.17414185      -1.42257204
H       -0.41835157      -1.54670494      -1.27946903
H       -1.21078038      -1.93987922       0.25560351
H       -2.07938432      -1.05300123      -0.99286759
H        0.82830645       0.46497879       1.60086062
H        3.14971227      -0.97663165      -0.12504000
H        1.64311919      -1.68244240      -0.47175402
H        0.66323457       1.38203204      -1.43449042
H        2.53329208       1.30781794       0.08292733
18
Frame=14 idx=001814 GeodesicLength=1.1862078714882591 rxn_smarts="[C:1]([C:2]([C:3]([H:11])([H:12])[H:13])([C:4]1([H:14])[C:5]([H:15])([H:16])[C:6]1([H:17])[H:18])[H:10])([H:7])([H:8])[H:9]>>[C:1]([C:2]([C:3]([H:11])([H:12])[H:13])=[C:4]([C:6](=[C:5]([H:15])[H:16])[H:18])[H:14])([H:7])([H:8])[H:9].[H:10][H:17]"
C       -1.67127340       0.83346175       0.88523818
C       -0.62683822       0.13923835       0.03451526
C       -1.11416050      -1.18755146      -0.49914028
C        0.70226868       0.16473750       0.56312380
C        2.11028567      -0.72581985      -0.23642277
C        1.79307935       0.65016389      -0.33030892
H       -1.29689087       1.75914200       1.32426357
H       -2.54374755       1.07689701       0.27322124
H       -2.03269438       0.20475701       1.70443084
H       -0.43576626       1.16884193      -1.42325924
H       -0.42496456      -1.59105985      -1.24088474
H       -1.24013243      -1.93440506       0.29122754
H       -2.08346562      -1.06847878      -0.98858579
H        0.81182907       0.41727917       1.61441943
H        3.17278536      -0.95264905      -0.21253937
H        1.67231113      -1.68177327      -0.49125115
H        0.68064786       1.42166536      -1.40381202
H        2.52672667       1.30555336       0.13576441
18
Frame=15 idx=001814 GeodesicLength=1.2703417312228096 rxn_smarts="[C:1]([C:2]([C:3]([H:11])([H:12])[H:13])([C:4]1([H:14])[C:5]([H:15])([H:16])[C:6]1([H:17])[H:18])[H:10])([H:7])([H:8])[H:9]>>[C:1]([C:2]([C:3]([H:11])([H:12])[H:13])=[C:4]([C:6](=[C:5]([H:15])[H:16])[H:18])[H:14])([H:7])([H:8])[H:9].[H:10][H:17]"
C       -1.67086398       0.84615957       0.86518646
C       -0.62922605       0.13560492       0.02168570
C       -1.12553150      -1.20249590      -0.47948311
C        0.69480577       0.14557608       0.56814698
C        2.12649950      -0.71725470      -0.26024458
C        1.79283245       0.65647220      -0.30105654
H       -1.29108385       1.77469763       1.29355313
H       -2.54105694       1.08752126       0.24888454
H       -2.03801286       0.23164459       1.69229651
H       -0.43734065       1.16308955      -1.42446419
H       -0.43127894      -1.63642958      -1.19902677
H       -1.27085616      -1.92761827       0.32721580
H       -2.08683721      -1.08436945      -0.98490718
H        0.79459062       0.36970854       1.62679746
H        3.19206682      -0.92449172      -0.30394071
H        1.70207506      -1.68052621      -0.51034592
H        0.69853202       1.46240315      -1.36985021
H        2.52068592       1.30030835       0.18955263
18
Frame=16 idx=001814 GeodesicLength=1.3545184189040076 rxn_smarts="[C:1]([C:2]([C:3]([H:11])([H:12])[H:13])([C:4]1([H:14])[C:5]([H:15])([H:16])[C:6]1([H:17])[H:18])[H:10])([H:7])([H:8])[H:9]>>[C:1]([C:2]([C:3]([H:11])([H:12])[H:13])=[C:4]([C:6](=[C:5]([H:15])[H:16])[H:18])[H:14])([H:7])([H:8])[H:9].[H:10][H:17]"
C       -1.66994757       0.85846658       0.84444295
C       -0.63128311       0.13133357       0.00843785
C       -1.13695372      -1.21745289      -0.45929676
C        0.68721673       0.12633293       0.57298706
C        2.14252002      -0.70795225      -0.28391221
C        1.79270719       0.66140943      -0.27101548
H       -1.28462232       1.78979477       1.26183809
H       -2.53786384       1.09752670       0.22382129
H       -2.04271368       0.25864359       1.67952527
H       -0.43769649       1.15695323      -1.42611535
H       -0.43726805      -1.68254615      -1.15373921
H       -1.30284885      -1.91943046       0.36338477
H       -2.08933948      -1.10076843      -0.98188096
H        0.77667191       0.32248474       1.63806899
H        3.20675899      -0.89201585      -0.39924460
H        1.73244482      -1.67873730      -0.52889517
H        0.71689355       1.50403024      -1.33244655
H        2.51532389       1.29192754       0.24404003
