17
Frame=0 idx=007836 GeodesicLength=0.0 rxn_smarts="[C:1]([C:2]([C@@:3]([O:4][H:14])([C:5]([C:6](=[O:7])[H:17])([H:15])[H:16])[H:13])([H:11])[H:12])([H:8])([H:9])[H:10]>>[C:1](/[C:2](=[C:3](/[C:5]([C:6](=[O:7])[H:17])([H:15])[H:16])[H:13])[H:12])([H:8])([H:9])[H:10].[O:4]([H:11])[H:14]"
C       -2.49121529      -0.28652214       0.02513468
C       -1.14504897       0.19281228      -0.46918456
C       -0.00467013       0.12192674       0.35254347
O        0.58474185      -1.52821220      -0.56032102
C        1.18065260       1.00522935       0.16843999
C        2.46358163       0.31093327       0.55627395
O        3.47103698       0.36432703      -0.08883731
H       -3.13701907      -0.55776636      -0.81108600
H       -2.38309372      -1.17513746       0.65035040
H       -3.01495864       0.47544286       0.60871960
H       -0.44943488      -0.81328546      -0.99023309
H       -1.15001249       1.00414076      -1.19380402
H       -0.07001032      -0.39847125       1.30297059
H        1.41833335      -1.68499856      -1.02079507
H        1.05176177       1.87399001       0.82826394
H        1.25734025       1.36982459      -0.85609945
H        2.41801505      -0.27423351       1.49766393
17
Frame=1 idx=007836 GeodesicLength=0.10091306057321364 rxn_smarts="[C:1]([C:2]([C@@:3]([O:4][H:14])([C:5]([C:6](=[O:7])[H:17])([H:15])[H:16])[H:13])([H:11])[H:12])([H:8])([H:9])[H:10]>>[C:1](/[C:2](=[C:3](/[C:5]([C:6](=[O:7])[H:17])([H:15])[H:16])[H:13])[H:12])([H:8])([H:9])[H:10].[O:4]([H:11])[H:14]"
C       -2.48847078      -0.28930899       0.02330414
C       -1.14531592       0.19741638      -0.47208139
C        0.00026728       0.10862069       0.34260213
O        0.56959335      -1.54372394      -0.58358560
C        1.17989998       1.00331441       0.17058073
C        2.46460600       0.31932688       0.56620197
O        3.44232615       0.26526316      -0.12321582
H       -3.14267156      -0.53640356      -0.81403153
H       -2.37748569      -1.19447910       0.62364105
H       -3.00348546       0.45936960       0.63116807
H       -0.45863703      -0.81929831      -1.02862563
H       -1.15969355       1.03182519      -1.17014055
H       -0.06583082      -0.41487706       1.29147233
H        1.42451062      -1.68420722      -1.00806894
H        1.04216637       1.87073445       0.83033518
H        1.25825666       1.37787799      -0.85053604
H        2.45996440      -0.15145056       1.57097990
17
Frame=2 idx=007836 GeodesicLength=0.1982364301731968 rxn_smarts="[C:1]([C:2]([C@@:3]([O:4][H:14])([C:5]([C:6](=[O:7])[H:17])([H:15])[H:16])[H:13])([H:11])[H:12])([H:8])([H:9])[H:10]>>[C:1](/[C:2](=[C:3](/[C:5]([C:6](=[O:7])[H:17])([H:15])[H:16])[H:13])[H:12])([H:8])([H:9])[H:10].[O:4]([H:11])[H:14]"
C       -2.48551806      -0.29200590       0.02164418
C       -1.14536962       0.20197531      -0.47484968
C        0.00529749       0.09553933       0.33256277
O        0.55390815      -1.55909398      -0.60705902
C        1.17916602       1.00147528       0.17280670
C        2.46585077       0.32800110       0.57582313
O        3.41109832       0.16898321      -0.14225330
H       -3.14810482      -0.51503029      -0.81601363
H       -2.37201707      -1.21294141       0.59686661
H       -2.99156058       0.44289002       0.65322652
H       -0.46829075      -0.82526273      -1.06710334
H       -1.16895551       1.05862158      -1.14547775
H       -0.06122061      -0.43103513       1.27991261
H        1.42865727      -1.68536339      -0.99307400
H        1.03215420       1.86758131       0.83225144
H        1.26032432       1.38494753      -0.84510174
H        2.50458048      -0.02928182       1.62583850
17
Frame=3 idx=007836 GeodesicLength=0.2931295037843912 rxn_smarts="[C:1]([C:2]([C@@:3]([O:4][H:14])([C:5]([C:6](=[O:7])[H:17])([H:15])[H:16])[H:13])([H:11])[H:12])([H:8])([H:9])[H:10]>>[C:1](/[C:2](=[C:3](/[C:5]([C:6](=[O:7])[H:17])([H:15])[H:16])[H:13])[H:12])([H:8])([H:9])[H:10].[O:4]([H:11])[H:14]"
C       -2.48241009      -0.29465075       0.02005394
C       -1.14526136       0.20654414      -0.47750134
C        0.01035230       0.08264022       0.32243665
O        0.53779743      -1.57413300      -0.63104398
C        1.17847636       0.99957681       0.17528978
C        2.46728747       0.33667144       0.58520200
O        3.37800328       0.07563023      -0.14773399
H       -3.15327921      -0.49384546      -0.81717596
H       -2.36672557      -1.23051343       0.57004909
H       -2.97934862       0.42599316       0.67470075
H       -0.47847623      -0.83111473      -1.10576515
H       -1.17780257       1.08457684      -1.11982504
H       -0.05642051      -0.44714347       1.26820462
H        1.43068263      -1.68810696      -0.97638552
H        1.02195130       1.86427578       0.83436607
H        1.26334304       1.39121620      -0.83954313
H        2.55183034       0.09238300       1.66467120
17
Frame=4 idx=007836 GeodesicLength=0.3863099499903583 rxn_smarts="[C:1]([C:2]([C@@:3]([O:4][H:14])([C:5]([C:6](=[O:7])[H:17])([H:15])[H:16])[H:13])([H:11])[H:12])([H:8])([H:9])[H:10]>>[C:1](/[C:2](=[C:3](/[C:5]([C:6](=[O:7])[H:17])([H:15])[H:16])[H:13])[H:12])([H:8])([H:9])[H:10].[O:4]([H:11])[H:14]"
C       -2.47923766      -0.29723091       0.01821692
C       -1.14494560       0.21109742      -0.48001496
C        0.01531835       0.06988589       0.31248159
O        0.52139871      -1.58883582      -0.65519471
C        1.17775112       0.99756433       0.17852218
C        2.46894039       0.34513462       0.59425657
O        3.34305738      -0.01461089      -0.14171889
H       -3.15798534      -0.47310677      -0.81804469
H       -2.36182158      -1.24705322       0.54318862
H       -2.96720169       0.40889542       0.69490344
H       -0.48910536      -0.83698055      -1.14440913
H       -1.18601320       1.10951708      -1.09336738
H       -0.05175630      -0.46324161       1.25658298
H        1.43043889      -1.69223180      -0.95825712
H        1.01170901       1.86046383       0.83760407
H        1.26685008       1.39722786      -0.83317888
H        2.60260281       0.21350511       1.68842939
17
Frame=5 idx=007836 GeodesicLength=0.47817563871726915 rxn_smarts="[C:1]([C:2]([C@@:3]([O:4][H:14])([C:5]([C:6](=[O:7])[H:17])([H:15])[H:16])[H:13])([H:11])[H:12])([H:8])([H:9])[H:10]>>[C:1](/[C:2](=[C:3](/[C:5]([C:6](=[O:7])[H:17])([H:15])[H:16])[H:13])[H:12])([H:8])([H:9])[H:10].[O:4]([H:11])[H:14]"
C       -2.47601924      -0.29981691       0.01614575
C       -1.14448161       0.21568441      -0.48237923
C        0.02014746       0.05727272       0.30269502
O        0.50489956      -1.60296289      -0.67983684
C        1.17702716       0.99533349       0.18255358
C        2.47070376       0.35319395       0.60339278
O        3.30646233      -0.10232849      -0.12437414
H       -3.16228844      -0.45281922      -0.81863222
H       -2.35723667      -1.26272996       0.51620724
H       -2.95516027       0.39144289       0.71400272
H       -0.50023241      -0.84276602      -1.18314681
H       -1.19367578       1.13354612      -1.06602856
H       -0.04736196      -0.47950193       1.24494374
H        1.42799103      -1.69720244      -0.93935599
H        1.00152507       1.85608342       0.84197025
H        1.27092564       1.40285806      -0.82595644
H        2.65677438       0.33471280       1.69779914
17
Frame=6 idx=007836 GeodesicLength=0.5689283466897963 rxn_smarts="[C:1]([C:2]([C@@:3]([O:4][H:14])([C:5]([C:6](=[O:7])[H:17])([H:15])[H:16])[H:13])([H:11])[H:12])([H:8])([H:9])[H:10]>>[C:1](/[C:2](=[C:3](/[C:5]([C:6](=[O:7])[H:17])([H:15])[H:16])[H:13])[H:12])([H:8])([H:9])[H:10].[O:4]([H:11])[H:14]"
C       -2.47281106      -0.30243354       0.01358502
C       -1.14383833       0.22030157      -0.48458949
C        0.02473121       0.04486821       0.29331547
O        0.48851544      -1.61643223      -0.70459599
C        1.17621164       0.99293928       0.18779244
C        2.47258348       0.36081634       0.61263691
O        3.26795036      -0.18745542      -0.09658336
H       -3.16603805      -0.43316906      -0.81938643
H       -2.35305431      -1.27752670       0.48903672
H       -2.94351359       0.37372532       0.73154608
H       -0.51168577      -0.84853679      -1.22181192
H       -1.20068338       1.15657704      -1.03795301
H       -0.04351654      -0.49582600       1.23352493
H        1.42347793      -1.70284094      -0.91954057
H        0.99147867       1.85093589       0.84824868
H        1.27522221       1.40858659      -0.81731583
H        2.71497010       0.45547045       1.69209034
17
Frame=7 idx=007836 GeodesicLength=0.6584511630162895 rxn_smarts="[C:1]([C:2]([C@@:3]([O:4][H:14])([C:5]([C:6](=[O:7])[H:17])([H:15])[H:16])[H:13])([H:11])[H:12])([H:8])([H:9])[H:10]>>[C:1](/[C:2](=[C:3](/[C:5]([C:6](=[O:7])[H:17])([H:15])[H:16])[H:13])[H:12])([H:8])([H:9])[H:10].[O:4]([H:11])[H:14]"
C       -2.46956733      -0.30511925       0.01064069
C       -1.14304635       0.22496317      -0.48669871
C        0.02905073       0.03276815       0.28430061
O        0.47268361      -1.62890837      -0.72972962
C        1.17531029       0.99043088       0.19416054
C        2.47449985       0.36808332       0.62230965
O        3.22757605      -0.27013209      -0.05768525
H       -3.16935066      -0.41408111      -0.82013259
H       -2.34910615      -1.29157510       0.46166761
H       -2.93213306       0.35563107       0.74783912
H       -0.52345121      -0.85431456      -1.26043940
H       -1.20716343       1.17865693      -1.00914571
H       -0.04028229      -0.51222428       1.22221453
H        1.41732617      -1.70850230      -0.89907270
H        0.98162264       1.84511197       0.85631943
H        1.27980239       1.41434615      -0.80736234
H        2.77622874       0.57486543       1.67081413
17
Frame=8 idx=007836 GeodesicLength=0.7467494471599945 rxn_smarts="[C:1]([C:2]([C@@:3]([O:4][H:14])([C:5]([C:6](=[O:7])[H:17])([H:15])[H:16])[H:13])([H:11])[H:12])([H:8])([H:9])[H:10]>>[C:1](/[C:2](=[C:3](/[C:5]([C:6](=[O:7])[H:17])([H:15])[H:16])[H:13])[H:12])([H:8])([H:9])[H:10].[O:4]([H:11])[H:14]"
C       -2.46637865      -0.30787155       0.00675646
C       -1.14197757       0.22960586      -0.48872711
C        0.03293579       0.02118272       0.27618704
O        0.45771283      -1.64052458      -0.75394648
C        1.17409522       0.98807986       0.20246608
C        2.47656172       0.37502201       0.63190483
O        3.18471702      -0.34921894      -0.00961760
H       -3.17178680      -0.39614908      -0.82186844
H       -2.34556034      -1.30464023       0.43420820
H       -2.92167987       0.33759583       0.76167288
H       -0.53503673      -0.86044828      -1.29848666
H       -1.21284933       1.19949191      -0.98010566
H       -0.03811652      -0.52818732       1.21169004
H        1.40974155      -1.71418692      -0.87721382
H        0.97213680       1.83823260       0.86792651
H        1.28378745       1.42136413      -0.79493179
H        2.84169742       0.69065195       1.63208554
17
Frame=9 idx=007836 GeodesicLength=0.8339397003561299 rxn_smarts="[C:1]([C:2]([C@@:3]([O:4][H:14])([C:5]([C:6](=[O:7])[H:17])([H:15])[H:16])[H:13])([H:11])[H:12])([H:8])([H:9])[H:10]>>[C:1](/[C:2](=[C:3](/[C:5]([C:6](=[O:7])[H:17])([H:15])[H:16])[H:13])[H:12])([H:8])([H:9])[H:10].[O:4]([H:11])[H:14]"
C       -2.46312261      -0.31083904       0.00215881
C       -1.14068880       0.23434379      -0.49065497
C        0.03644543       0.01028557       0.26888595
O        0.44412342      -1.65079040      -0.77775607
C        1.17264585       0.98598960       0.21233868
C        2.47881395       0.38197424       0.64159323
O        3.13907167      -0.42571714       0.04995166
H       -3.17357422      -0.37900063      -0.82420700
H       -2.34205736      -1.31717161       0.40629799
H       -2.91180928       0.31904457       0.77389067
H       -0.54640436      -0.86677142      -1.33612245
H       -1.21808031       1.21938083      -0.95049644
H       -0.03689522      -0.54369595       1.20177378
H        1.40125303      -1.71893480      -0.85466232
H        0.96316273       1.83058610       0.88247445
H        1.28739298       1.42933925      -0.78052553
H        2.90972311       0.80197704       1.57505956
17
Frame=10 idx=007836 GeodesicLength=0.9201651655347839 rxn_smarts="[C:1]([C:2]([C@@:3]([O:4][H:14])([C:5]([C:6](=[O:7])[H:17])([H:15])[H:16])[H:13])([H:11])[H:12])([H:8])([H:9])[H:10]>>[C:1](/[C:2](=[C:3](/[C:5]([C:6](=[O:7])[H:17])([H:15])[H:16])[H:13])[H:12])([H:8])([H:9])[H:10].[O:4]([H:11])[H:14]"
C       -2.45984685      -0.31413542      -0.00378915
C       -1.13906309       0.23921679      -0.49246552
C        0.03940868       0.00043264       0.26299862
O        0.43223787      -1.65974590      -0.79980393
C        1.17072456       0.98457591       0.22457401
C        2.48142994       0.38900151       0.65047858
O        3.08985039      -0.49822976       0.11952832
H       -3.17422216      -0.36322860      -0.82827316
H       -2.33861517      -1.32914659       0.37774998
H       -2.90322436       0.30007926       0.78336778
H       -0.55685075      -0.87344511      -1.37286676
H       -1.22276100       1.23825973      -0.92055457
H       -0.03707424      -0.55807219       1.19322112
H        1.39218824      -1.72287895      -0.83012801
H        0.95505936       1.82182976       0.90184303
H        1.28956365       1.43973631      -0.76294607
H        2.98119493       0.90575062       1.49706572
17
Frame=11 idx=007836 GeodesicLength=1.005299244496488 rxn_smarts="[C:1]([C:2]([C@@:3]([O:4][H:14])([C:5]([C:6](=[O:7])[H:17])([H:15])[H:16])[H:13])([H:11])[H:12])([H:8])([H:9])[H:10]>>[C:1](/[C:2](=[C:3](/[C:5]([C:6](=[O:7])[H:17])([H:15])[H:16])[H:13])[H:12])([H:8])([H:9])[H:10].[O:4]([H:11])[H:14]"
C       -2.45639056      -0.31779648      -0.01106132
C       -1.13704010       0.24426266      -0.49428059
C        0.04188671      -0.00798354       0.25859711
O        0.42283921      -1.66710018      -0.81974874
C        1.16829060       0.98430691       0.23896021
C        2.48463422       0.39643892       0.65736468
O        3.03713772      -0.56519519       0.19877266
H       -3.17367289      -0.34893667      -0.83404532
H       -2.33485056      -1.34062452       0.34865554
H       -2.89581625       0.28071835       0.79017112
H       -0.56599086      -0.88076607      -1.40849558
H       -1.22711283       1.25615571      -0.89046236
H       -0.03856707      -0.57077851       1.18618936
H        1.38333227      -1.72553335      -0.80285384
H        0.94827812       1.81211710       0.92625094
H        1.28964883       1.45338001      -0.74224746
H        3.05339343       0.99733485       1.39823360
17
Frame=12 idx=007836 GeodesicLength=1.0894910535453883 rxn_smarts="[C:1]([C:2]([C@@:3]([O:4][H:14])([C:5]([C:6](=[O:7])[H:17])([H:15])[H:16])[H:13])([H:11])[H:12])([H:8])([H:9])[H:10]>>[C:1](/[C:2](=[C:3](/[C:5]([C:6](=[O:7])[H:17])([H:15])[H:16])[H:13])[H:12])([H:8])([H:9])[H:10].[O:4]([H:11])[H:14]"
C       -2.45262233      -0.32188645      -0.01991902
C       -1.13451777       0.24957349      -0.49619076
C        0.04389011      -0.01451214       0.25592135
O        0.41643137      -1.67276234      -0.83677110
C        1.16527023       0.98571326       0.25560160
C        2.48862259       0.40426929       0.66055388
O        2.98127855      -0.62422558       0.28503052
H       -3.17161021      -0.33655391      -0.84202359
H       -2.33043784      -1.35160768       0.31907210
H       -2.88980415       0.26105718       0.79382016
H       -0.57322458      -0.88897709      -1.44270307
H       -1.23127244       1.27312205      -0.86043509
H       -0.04141931      -0.58111351       1.18105548
H        1.37502141      -1.72721170      -0.77114006
H        0.94344510       1.80134968       0.95655398
H        1.28664783       1.47164740      -0.71792254
H        3.12430145       1.07211806       1.27949616
17
Frame=13 idx=007836 GeodesicLength=1.1729509430530536 rxn_smarts="[C:1]([C:2]([C@@:3]([O:4][H:14])([C:5]([C:6](=[O:7])[H:17])([H:15])[H:16])[H:13])([H:11])[H:12])([H:8])([H:9])[H:10]>>[C:1](/[C:2](=[C:3](/[C:5]([C:6](=[O:7])[H:17])([H:15])[H:16])[H:13])[H:12])([H:8])([H:9])[H:10].[O:4]([H:11])[H:14]"
C       -2.44835889      -0.32633439      -0.03037960
C       -1.13138659       0.25520404      -0.49834950
C        0.04552240      -0.01888919       0.25497899
O        0.41345014      -1.67677256      -0.85044130
C        1.16171474       0.98911643       0.27426677
C        2.49341468       0.41218399       0.65850125
O        2.92353049      -0.67296530       0.37488825
H       -3.16794016      -0.32601901      -0.85224841
H       -2.32506897      -1.36207202       0.28905900
H       -2.88499823       0.24124625       0.79434195
H       -0.57819511      -0.89850196      -1.47529089
H       -1.23536115       1.28921760      -0.83066429
H       -0.04546965      -0.58866927       1.17791815
H        1.36734234      -1.72825760      -0.73373979
H        0.94113892       1.78941731       0.99281888
H        1.27995243       1.49536550      -0.68982944
H        3.19071260       1.12673018       1.14416997
17
Frame=14 idx=007836 GeodesicLength=1.2561636110770102 rxn_smarts="[C:1]([C:2]([C@@:3]([O:4][H:14])([C:5]([C:6](=[O:7])[H:17])([H:15])[H:16])[H:13])([H:11])[H:12])([H:8])([H:9])[H:10]>>[C:1](/[C:2](=[C:3](/[C:5]([C:6](=[O:7])[H:17])([H:15])[H:16])[H:13])[H:12])([H:8])([H:9])[H:10].[O:4]([H:11])[H:14]"
C       -2.44341701      -0.33116154      -0.04254346
C       -1.12757206       0.26136015      -0.50077042
C        0.04688626      -0.02083773       0.25578460
O        0.41378610      -1.67920999      -0.86042125
C        1.15777681       0.99476929       0.29484777
C        2.49880074       0.41976305       0.65023684
O        2.86547460      -0.70960823       0.46356132
H       -3.16237898      -0.31768573      -0.86499951
H       -2.31836785      -1.37203794       0.25872413
H       -2.88144682       0.22128931       0.79157062
H       -0.58054779      -0.90931967      -1.50626857
H       -1.23951419       1.30466807      -0.80111331
H       -0.05054397      -0.59307547       1.17685302
H        1.35950163      -1.72977064      -0.68914075
H        0.94192532       1.77622468       1.03491386
H        1.26936747       1.52509144      -0.65763119
H        3.25026975       1.15954093       0.99639629
17
Frame=15 idx=007836 GeodesicLength=1.3393245900760344 rxn_smarts="[C:1]([C:2]([C@@:3]([O:4][H:14])([C:5]([C:6](=[O:7])[H:17])([H:15])[H:16])[H:13])([H:11])[H:12])([H:8])([H:9])[H:10]>>[C:1](/[C:2](=[C:3](/[C:5]([C:6](=[O:7])[H:17])([H:15])[H:16])[H:13])[H:12])([H:8])([H:9])[H:10].[O:4]([H:11])[H:14]"
C       -2.43772011      -0.33590587      -0.05630394
C       -1.12281849       0.26788536      -0.50348772
C        0.04806154      -0.02086260       0.25845810
O        0.41749059      -1.68070093      -0.86639986
C        1.15353395       1.00214609       0.31756087
C        2.50411253       0.42634133       0.63687998
O        2.80935321      -0.73378308       0.54822758
H       -3.15504000      -0.31033568      -0.88005464
H       -2.31064566      -1.38123719       0.22788965
H       -2.87863260       0.20172929       0.78584722
H       -0.58027138      -0.92229258      -1.53530070
H       -1.24327797       1.31929770      -0.77200581
H       -0.05655723      -0.59502799       1.17784372
H        1.35139257      -1.73090337      -0.63886495
H        0.94563255       1.76129176       1.08228268
H        1.25554032       1.55978481      -0.62089221
H        3.29984618       1.17257295       0.83832001
17
Frame=16 idx=007836 GeodesicLength=1.422642432130943 rxn_smarts="[C:1]([C:2]([C@@:3]([O:4][H:14])([C:5]([C:6](=[O:7])[H:17])([H:15])[H:16])[H:13])([H:11])[H:12])([H:8])([H:9])[H:10]>>[C:1](/[C:2](=[C:3](/[C:5]([C:6](=[O:7])[H:17])([H:15])[H:16])[H:13])[H:12])([H:8])([H:9])[H:10].[O:4]([H:11])[H:14]"
C       -2.43106929      -0.34046991      -0.07128214
C       -1.11707559       0.27490197      -0.50641850
C        0.04927852      -0.01894645       0.26275614
O        0.42382114      -1.68157798      -0.86843875
C        1.14927647       1.01124450       0.34198754
C        2.50881144       0.43213931       0.61977526
O        2.75690091      -0.74597229       0.62410078
H       -3.14571159      -0.30455754      -0.89712277
H       -2.30156846      -1.38947697       0.19752646
H       -2.87641346       0.18302315       0.77733652
H       -0.57761634      -0.93750527      -1.56250040
H       -1.24662947       1.33317620      -0.74360729
H       -0.06298306      -0.59452550       1.18066834
H        1.34216148      -1.73190385      -0.58410138
H        0.95208892       1.74518503       1.13319548
H        1.23963310       1.59838223      -0.58011033
H        3.33709529       1.16688337       0.67623505
