15
Frame=0 idx=007243 GeodesicLength=0.0 rxn_smarts="[C:1]([n:2]1[c:3]([H:11])[n:4][c:5]([C:6]([H:12])([H:13])[H:14])[c:7]1[H:15])([H:8])([H:9])[H:10]>>[C:1]([N+:2]1([H:15])[C:3]([H:11])=[N:4][C:5]([C:6]([H:12])([H:13])[H:14])=[C-:7]1)([H:8])([H:9])[H:10]"
C       -2.36047986      -0.01863611      -0.45202860
N       -1.00718469       0.17597259       0.05266233
C       -0.54264006      -0.31078560       1.26665372
N        0.73715435      -0.43818776       1.26254057
C        1.17886575      -0.04048373       0.00952121
C        2.64107249      -0.03797239      -0.28458868
C        0.19097212       0.28661567      -0.89570467
H       -2.47393405       0.58199911      -1.35179920
H       -2.50292810      -1.06684929      -0.70866304
H       -3.09078796       0.28422101       0.29821033
H       -1.20832722      -0.51315993       2.09437535
H        3.17639810       0.62465526       0.39792856
H        3.05901738      -1.03961487      -0.16424371
H        2.81547658       0.29243399      -1.30728086
H       -0.61267484       1.21979203      -0.21758324
15
Frame=1 idx=007243 GeodesicLength=0.05149389466012986 rxn_smarts="[C:1]([n:2]1[c:3]([H:11])[n:4][c:5]([C:6]([H:12])([H:13])[H:14])[c:7]1[H:15])([H:8])([H:9])[H:10]>>[C:1]([N+:2]1([H:15])[C:3]([H:11])=[N:4][C:5]([C:6]([H:12])([H:13])[H:14])=[C-:7]1)([H:8])([H:9])[H:10]"
C       -2.35798135      -0.01991897      -0.45125401
N       -1.00661716       0.18420302       0.05496136
C       -0.54263994      -0.31084250       1.26739995
N        0.73523566      -0.45364812       1.25892031
C        1.17838760      -0.04483362       0.00883408
C        2.64042499      -0.03786934      -0.28514202
C        0.18859942       0.29529079      -0.88731394
H       -2.47030718       0.55562106      -1.36744505
H       -2.50167082      -1.07431624      -0.68021267
H       -3.09019340       0.30571746       0.28760717
H       -1.20897815      -0.52104911       2.09267478
H        3.17598933       0.61507122       0.40648058
H        3.05820057      -1.04118376      -0.17882623
H        2.81482197       0.30731207      -1.30300714
H       -0.61327153       1.24044605      -0.22367718
15
Frame=2 idx=007243 GeodesicLength=0.10299727002846293 rxn_smarts="[C:1]([n:2]1[c:3]([H:11])[n:4][c:5]([C:6]([H:12])([H:13])[H:14])[c:7]1[H:15])([H:8])([H:9])[H:10]>>[C:1]([N+:2]1([H:15])[C:3]([H:11])=[N:4][C:5]([C:6]([H:12])([H:13])[H:14])=[C-:7]1)([H:8])([H:9])[H:10]"
C       -2.35543643      -0.02125818      -0.45041893
N       -1.00606046       0.19227974       0.05734866
C       -0.54255539      -0.31092584       1.26820931
N        0.73316534      -0.46943851       1.25495349
C        1.17783127      -0.04927861       0.00800263
C        2.63972424      -0.03774423      -0.28566119
C        0.18623337       0.30396130      -0.87885509
H       -2.46643616       0.52893648      -1.38223803
H       -2.50054011      -1.08103257      -0.65183478
H       -3.08948238       0.32666614       0.27647533
H       -1.20951562      -0.52830136       2.09115964
H        3.17546005       0.60521970       0.41513219
H        3.05734619      -1.04254830      -0.19361843
H        2.81418604       0.32240204      -1.29838116
H       -0.61391995       1.26106219      -0.23027363
15
Frame=3 idx=007243 GeodesicLength=0.15451502700819184 rxn_smarts="[C:1]([n:2]1[c:3]([H:11])[n:4][c:5]([C:6]([H:12])([H:13])[H:14])[c:7]1[H:15])([H:8])([H:9])[H:10]>>[C:1]([N+:2]1([H:15])[C:3]([H:11])=[N:4][C:5]([C:6]([H:12])([H:13])[H:14])=[C-:7]1)([H:8])([H:9])[H:10]"
C       -2.35284629      -0.02264735      -0.44951931
N       -1.00551472       0.20021070       0.05982825
C       -0.54237911      -0.31105072       1.26907779
N        0.73093702      -0.48555286       1.25062870
C        1.17719516      -0.05382326       0.00701853
C        2.63896997      -0.03759488      -0.28614256
C        0.18387397       0.31263216      -0.87032578
H       -2.46231732       0.50195803      -1.39619155
H       -2.49955059      -1.08701406      -0.62352342
H       -3.08865299       0.34709299       0.26483073
H       -1.20992856      -0.53496133       2.08984013
H        3.17480196       0.59510175       0.42388074
H        3.05646063      -1.04369477      -0.20861127
H        2.81357040       0.33769921      -1.29338961
H       -0.61461952       1.28164439      -0.23740137
15
Frame=4 idx=007243 GeodesicLength=0.20606177579285007 rxn_smarts="[C:1]([n:2]1[c:3]([H:11])[n:4][c:5]([C:6]([H:12])([H:13])[H:14])[c:7]1[H:15])([H:8])([H:9])[H:10]>>[C:1]([N+:2]1([H:15])[C:3]([H:11])=[N:4][C:5]([C:6]([H:12])([H:13])[H:14])=[C-:7]1)([H:8])([H:9])[H:10]"
C       -2.35021013      -0.02408058      -0.44855388
N       -1.00498181       0.20800859       0.06240821
C       -0.54210748      -0.31123533       1.27000760
N        0.72854653      -0.50195848       1.24595221
C        1.17647853      -0.05846055       0.00587808
C        2.63816268      -0.03742436      -0.28658680
C        0.18152300       0.32132308      -0.86172086
H       -2.45794575       0.47470810      -1.40931888
H       -2.49870399      -1.09227860      -0.59528586
H       -3.08770789       0.36701073       0.25268966
H       -1.21021236      -0.54109953       2.08872672
H        3.17401237       0.58472656       0.43270694
H        3.05554709      -1.04462090      -0.22378211
H        2.81297696       0.35317328      -1.28803678
H       -0.61537775       1.30220799      -0.24508425
15
Frame=5 idx=007243 GeodesicLength=0.2576055030777483 rxn_smarts="[C:1]([n:2]1[c:3]([H:11])[n:4][c:5]([C:6]([H:12])([H:13])[H:14])[c:7]1[H:15])([H:8])([H:9])[H:10]>>[C:1]([N+:2]1([H:15])[C:3]([H:11])=[N:4][C:5]([C:6]([H:12])([H:13])[H:14])=[C-:7]1)([H:8])([H:9])[H:10]"
C       -2.34752545      -0.02555919      -0.44752178
N       -1.00446093       0.21568674       0.06509841
C       -0.54172428      -0.31148678       1.27097624
N        0.72600310      -0.51858916       1.24091861
C        1.17567760      -0.06316776       0.00458724
C        2.63729254      -0.03724239      -0.28698743
C        0.17917307       0.33006030      -0.85300679
H       -2.45333542       0.44721542      -1.42159416
H       -2.49798786      -1.09682376      -0.56715812
H       -3.08664254       0.38638140       0.24005576
H       -1.21033906      -0.54675890       2.08779074
H        3.17310557       0.57407978       0.44158221
H        3.05457660      -1.04531778      -0.23910063
H        2.81238697       0.36877291      -1.28230447
H       -0.61619990       1.32274917      -0.25333582
15
Frame=6 idx=007243 GeodesicLength=0.3091529951211761 rxn_smarts="[C:1]([n:2]1[c:3]([H:11])[n:4][c:5]([C:6]([H:12])([H:13])[H:14])[c:7]1[H:15])([H:8])([H:9])[H:10]>>[C:1]([N+:2]1([H:15])[C:3]([H:11])=[N:4][C:5]([C:6]([H:12])([H:13])[H:14])=[C-:7]1)([H:8])([H:9])[H:10]"
C       -2.34479701      -0.02708194      -0.44640842
N       -1.00395431       0.22324344       0.06789214
C       -0.54124163      -0.31179823       1.27200268
N        0.72327727      -0.53548734       1.23550177
C        1.17479257      -0.06799023       0.00311494
C        2.63637284      -0.03704018      -0.28733938
C        0.17683530       0.33877689      -0.84422715
H       -2.44848033       0.41950283      -1.43303261
H       -2.49741958      -1.10068515      -0.53911639
H       -3.08546527       0.40522444       0.22698309
H       -1.21032220      -0.55186462       2.08710932
H        3.17205801       0.56308347       0.45059488
H        3.05357956      -1.04578033      -0.25468202
H        2.81184112       0.38465483      -1.27612314
H       -0.61707633       1.34324212      -0.26226971
15
Frame=7 idx=007243 GeodesicLength=0.36063178876934193 rxn_smarts="[C:1]([n:2]1[c:3]([H:11])[n:4][c:5]([C:6]([H:12])([H:13])[H:14])[c:7]1[H:15])([H:8])([H:9])[H:10]>>[C:1]([N+:2]1([H:15])[C:3]([H:11])=[N:4][C:5]([C:6]([H:12])([H:13])[H:14])=[C-:7]1)([H:8])([H:9])[H:10]"
C       -2.34201585      -0.02861662      -0.44522257
N       -1.00346317       0.23069434       0.07082814
C       -0.54064409      -0.31227628       1.27301380
N        0.72043301      -0.55238506       1.22978618
C        1.17382352      -0.07281837       0.00151446
C        2.63538227      -0.03684052      -0.28765347
C        0.17450090       0.34764411      -0.83525294
H       -2.44335891       0.39162252      -1.44359942
H       -2.49700150      -1.10379737      -0.51122899
H       -3.08416207       0.42354517       0.21343065
H       -1.21014319      -0.55682759       2.08647061
H        3.17090262       0.55197401       0.45945109
H        3.05252349      -1.04597863      -0.27016299
H        2.81126581       0.40034560      -1.26965258
H       -0.61804283       1.36371468      -0.27172195
15
Frame=8 idx=007243 GeodesicLength=0.41216366514444436 rxn_smarts="[C:1]([n:2]1[c:3]([H:11])[n:4][c:5]([C:6]([H:12])([H:13])[H:14])[c:7]1[H:15])([H:8])([H:9])[H:10]>>[C:1]([N+:2]1([H:15])[C:3]([H:11])=[N:4][C:5]([C:6]([H:12])([H:13])[H:14])=[C-:7]1)([H:8])([H:9])[H:10]"
C       -2.33917413      -0.03018608      -0.44397171
N       -1.00299460       0.23807143       0.07391583
C       -0.53994795      -0.31287447       1.27409353
N        0.71743723      -0.56935476       1.22378515
C        1.17276887      -0.07765970      -0.00022763
C        2.63432916      -0.03664646      -0.28794129
C        0.17218002       0.35664327      -0.82613496
H       -2.43795579       0.36356404      -1.45337189
H       -2.49669735      -1.10626190      -0.48348253
H       -3.08275168       0.44134425       0.19942712
H       -1.20982397      -0.56155412       2.08603877
H        3.16964948       0.54060369       0.46828580
H        3.05139016      -1.04597812      -0.28574921
H        2.81070082       0.41606976      -1.26284986
H       -0.61911028       1.38421917      -0.28181710
15
Frame=9 idx=007243 GeodesicLength=0.46371633718539357 rxn_smarts="[C:1]([n:2]1[c:3]([H:11])[n:4][c:5]([C:6]([H:12])([H:13])[H:14])[c:7]1[H:15])([H:8])([H:9])[H:10]>>[C:1]([N+:2]1([H:15])[C:3]([H:11])=[N:4][C:5]([C:6]([H:12])([H:13])[H:14])=[C-:7]1)([H:8])([H:9])[H:10]"
C       -2.33626616      -0.03179051      -0.44265319
N       -1.00254982       0.24538861       0.07717078
C       -0.53914764      -0.31359445       1.27523120
N        0.71430022      -0.58633848       1.21750331
C        1.17162515      -0.08248882      -0.00210165
C        2.63320501      -0.03646521      -0.28820097
C        0.16986903       0.36579878      -0.81683653
H       -2.43226372       0.33534131      -1.46233896
H       -2.49649853      -1.10808135      -0.45589108
H       -3.08123006       0.45860562       0.18497161
H       -1.20935229      -0.56609475       2.08578397
H        3.16831382       0.52895149       0.47707746
H        3.05015078      -1.04577624      -0.30143444
H        2.81013186       0.43179928      -1.25570171
H       -0.62028765       1.40474472      -0.29257978
15
Frame=10 idx=007243 GeodesicLength=0.5152684338698412 rxn_smarts="[C:1]([n:2]1[c:3]([H:11])[n:4][c:5]([C:6]([H:12])([H:13])[H:14])[c:7]1[H:15])([H:8])([H:9])[H:10]>>[C:1]([N+:2]1([H:15])[C:3]([H:11])=[N:4][C:5]([C:6]([H:12])([H:13])[H:14])=[C-:7]1)([H:8])([H:9])[H:10]"
C       -2.33328975      -0.03341083      -0.44127253
N       -1.00213215       0.25264252       0.08061286
C       -0.53825624      -0.31450896       1.27640555
N        0.71105589      -0.60318780       1.21101830
C        1.17039363      -0.08727984      -0.00408626
C        2.63200705      -0.03630932      -0.28844239
C        0.16757139       0.37514477      -0.80731035
H       -2.42628365       0.30708642      -1.47047122
H       -2.49639350      -1.10924723      -0.42856822
H       -3.07960344       0.47527247       0.17010986
H       -1.20874009      -0.57059054       2.08565928
H        3.16690189       0.51714105       0.48569795
H        3.04881208      -1.04537512      -0.31705957
H        2.80954034       0.44733786      -1.24829911
H       -0.62158346       1.42528456      -0.30399416
15
Frame=11 idx=007243 GeodesicLength=0.5668374282417608 rxn_smarts="[C:1]([n:2]1[c:3]([H:11])[n:4][c:5]([C:6]([H:12])([H:13])[H:14])[c:7]1[H:15])([H:8])([H:9])[H:10]>>[C:1]([N+:2]1([H:15])[C:3]([H:11])=[N:4][C:5]([C:6]([H:12])([H:13])[H:14])=[C-:7]1)([H:8])([H:9])[H:10]"
C       -2.33023615      -0.03504802      -0.43983336
N       -1.00174716       0.25985285       0.08426501
C       -0.53728728      -0.31562323       1.27763859
N        0.70771103      -0.61986352       1.20436573
C        1.16907298      -0.09200704      -0.00616872
C        2.63073337      -0.03618583      -0.28867640
C        0.16529164       0.38471360      -0.79753040
H       -2.41999425       0.27883175      -1.47779256
H       -2.49636206      -1.10979624      -0.40154046
H       -3.07787871       0.49133602       0.15485652
H       -1.20800507      -0.57510062       2.08568219
H        3.16542907       0.50516912       0.49412813
H        3.04735606      -1.04479882      -0.33262915
H        2.80892544       0.46266695      -1.24067062
H       -0.62300893       1.44585303      -0.31609450
15
Frame=12 idx=007243 GeodesicLength=0.6183858966478738 rxn_smarts="[C:1]([n:2]1[c:3]([H:11])[n:4][c:5]([C:6]([H:12])([H:13])[H:14])[c:7]1[H:15])([H:8])([H:9])[H:10]>>[C:1]([N+:2]1([H:15])[C:3]([H:11])=[N:4][C:5]([C:6]([H:12])([H:13])[H:14])=[C-:7]1)([H:8])([H:9])[H:10]"
C       -2.32709231      -0.03670231      -0.43834311
N       -1.00140234       0.26703983       0.08815727
C       -0.53624603      -0.31693960       1.27892618
N        0.70429679      -0.63626593       1.19759241
C        1.16766135      -0.09662042      -0.00831575
C        2.62937417      -0.03611456      -0.28891226
C        0.16302704       0.39456090      -0.78742768
H       -2.41337849       0.25063697      -1.48429271
H       -2.49635387      -1.10973879      -0.37487639
H       -3.07607193       0.50673504       0.13921690
H       -1.20715132      -0.57970199       2.08581204
H        3.16392609       0.49304540       0.50230234
H        3.04574460      -1.04407301      -0.34809956
H        2.80826299       0.47769023      -1.23285879
H       -0.62459673       1.46644824      -0.32888089
15
Frame=13 idx=007243 GeodesicLength=0.6698583254123638 rxn_smarts="[C:1]([n:2]1[c:3]([H:11])[n:4][c:5]([C:6]([H:12])([H:13])[H:14])[c:7]1[H:15])([H:8])([H:9])[H:10]>>[C:1]([N+:2]1([H:15])[C:3]([H:11])=[N:4][C:5]([C:6]([H:12])([H:13])[H:14])=[C-:7]1)([H:8])([H:9])[H:10]"
C       -2.32385721      -0.03835043      -0.43679308
N       -1.00109558       0.27419584       0.09230851
C       -0.53515875      -0.31851224       1.28025769
N        0.70082958      -0.65231558       1.19074453
C        1.16615432      -0.10113447      -0.01052564
C        2.62792574      -0.03608990      -0.28915540
C        0.16078577       0.40467142      -0.77697302
H       -2.40644222       0.22264414      -1.48995437
H       -2.49638106      -1.10908830      -0.34866538
H       -3.07416314       0.52144984       0.12327196
H       -1.20621319      -0.58449110       2.08601060
H        3.16237531       0.48090442       0.51013560
H        3.04400242      -1.04318142      -0.36334058
H        2.80754031       0.49228283      -1.22493937
H       -0.62630229       1.48701495      -0.34238205
15
Frame=14 idx=007243 GeodesicLength=0.7214353095421351 rxn_smarts="[C:1]([n:2]1[c:3]([H:11])[n:4][c:5]([C:6]([H:12])([H:13])[H:14])[c:7]1[H:15])([H:8])([H:9])[H:10]>>[C:1]([N+:2]1([H:15])[C:3]([H:11])=[N:4][C:5]([C:6]([H:12])([H:13])[H:14])=[C-:7]1)([H:8])([H:9])[H:10]"
C       -2.32052059      -0.04000734      -0.43518878
N       -1.00083395       0.28136084       0.09673742
C       -0.53401690      -0.32028490       1.28171744
N        0.69727786      -0.66819251       1.18379895
C        1.16454789      -0.10554960      -0.01280656
C        2.62638968      -0.03610238      -0.28941497
C        0.15856937       0.41507437      -0.76618557
H       -2.39910739       0.19465899      -1.49490692
H       -2.49647196      -1.10791006      -0.32272511
H       -3.07215652       0.53562740       0.10693882
H       -1.20518275      -0.58943156       2.08641235
H        3.16078121       0.46856127       0.51778861
H        3.04210296      -1.04216433      -0.37861635
H        2.80678310       0.50672753      -1.21682834
H       -0.62816205       1.50763228      -0.35672100
15
Frame=15 idx=007243 GeodesicLength=0.7729089630416249 rxn_smarts="[C:1]([n:2]1[c:3]([H:11])[n:4][c:5]([C:6]([H:12])([H:13])[H:14])[c:7]1[H:15])([H:8])([H:9])[H:10]>>[C:1]([N+:2]1([H:15])[C:3]([H:11])=[N:4][C:5]([C:6]([H:12])([H:13])[H:14])=[C-:7]1)([H:8])([H:9])[H:10]"
C       -2.31707291      -0.04167671      -0.43350564
N       -1.00061767       0.28853223       0.10146245
C       -0.53279797      -0.32222269       1.28321526
N        0.69365797      -0.68383509       1.17668381
C        1.16283359      -0.10979366      -0.01511863
C        2.62474574      -0.03614731      -0.28967291
C        0.15636617       0.42581017      -0.75493897
H       -2.39133730       0.16655890      -1.49906045
H       -2.49666446      -1.10610822      -0.29696453
H       -3.07001410       0.54927790       0.09011796
H       -1.20402169      -0.59453885       2.08682215
H        3.15919967       0.45590713       0.52523723
H        3.03995099      -1.04096278      -0.39397434
H        2.80596409       0.52102670      -1.20842108
H       -0.63019211       1.52817228      -0.37188230
15
Frame=16 idx=007243 GeodesicLength=0.8244402329371014 rxn_smarts="[C:1]([n:2]1[c:3]([H:11])[n:4][c:5]([C:6]([H:12])([H:13])[H:14])[c:7]1[H:15])([H:8])([H:9])[H:10]>>[C:1]([N+:2]1([H:15])[C:3]([H:11])=[N:4][C:5]([C:6]([H:12])([H:13])[H:14])=[C-:7]1)([H:8])([H:9])[H:10]"
C       -2.31348689      -0.04338345      -0.43177170
N       -1.00046404       0.29576326       0.10652906
C       -0.53154392      -0.32431639       1.28486668
N        0.68995405      -0.69922444       1.16949819
C        1.16100929      -0.11381100      -0.01743330
C        2.62299546      -0.03624493      -0.28996970
C        0.15419476       0.43697229      -0.74322065
H       -2.38305542       0.13837425      -1.50251720
H       -2.49688853      -1.10381077      -0.27143864
H       -3.06776276       0.56236445       0.07282397
H       -1.20279588      -0.59985184       2.08740229
H        3.15767127       0.44286480       0.53248540
H        3.03749102      -1.03966636      -0.40953180
H        2.80510716       0.53523309      -1.19977490
H       -0.63242555       1.54873703      -0.38794770
