15
Frame=0 idx=008133 GeodesicLength=0.0 rxn_smarts="[C:1]1([H:8])([H:9])[O:2][C@@:3]2([H:10])[C:4]([H:11])([H:12])[C@:5]1([H:13])[C:6]([H:14])([H:15])[O:7]2>>[C:1]([O+:2]=[C-:3][H:10])([C:5]1([H:13])[C:4]([H:11])([H:12])[O:7][C:6]1([H:14])[H:15])([H:8])[H:9]"
C       -1.26459415       0.59943912       0.38383348
O       -0.59916529       1.49774764      -0.50398373
C        0.02726687       0.77133164      -1.46246151
C        0.12574184      -1.19493964      -0.62428327
C       -0.28344032      -0.52669783       0.67449989
C        1.11454777       0.08192534       0.81414142
O        1.41384636       0.04664747      -0.58214324
H       -2.18704050       0.22752413      -0.07592770
H       -1.51039801       1.16294085       1.28535451
H        0.58686740       1.47404800      -2.08724761
H        0.86319861      -1.99026732      -0.49770447
H       -0.62465021      -1.47002209      -1.35160506
H       -0.64066130      -1.20387048       1.45215944
H        1.16431674       1.09029284       1.22855248
H        1.81416418      -0.56609971       1.34681542
15
Frame=1 idx=008133 GeodesicLength=0.04163781023896551 rxn_smarts="[C:1]1([H:8])([H:9])[O:2][C@@:3]2([H:10])[C:4]([H:11])([H:12])[C@:5]1([H:13])[C:6]([H:14])([H:15])[O:7]2>>[C:1]([O+:2]=[C-:3][H:10])([C:5]1([H:13])[C:4]([H:11])([H:12])[O:7][C:6]1([H:14])[H:15])([H:8])[H:9]"
C       -1.26440476       0.59836425       0.38346575
O       -0.60537529       1.49453354      -0.51193123
C        0.02609518       0.77166577      -1.46807495
C        0.12989637      -1.18896436      -0.62678445
C       -0.28148905      -0.52561683       0.67486981
C        1.11738050       0.07968294       0.82130532
O        1.42313504       0.04626252      -0.57403905
H       -2.18824077       0.22579769      -0.07244289
H       -1.50555590       1.16601437       1.28370274
H        0.57481116       1.47595151      -2.10073726
H        0.85625748      -1.99493135      -0.50379062
H       -0.62357441      -1.46362089      -1.35191768
H       -0.63904439      -1.20427590       1.45075332
H        1.16683970       1.08767023       1.23683099
H        1.81326913      -0.56853348       1.35879020
15
Frame=2 idx=008133 GeodesicLength=0.08327179175875275 rxn_smarts="[C:1]1([H:8])([H:9])[O:2][C@@:3]2([H:10])[C:4]([H:11])([H:12])[C@:5]1([H:13])[C:6]([H:14])([H:15])[O:7]2>>[C:1]([O+:2]=[C-:3][H:10])([C:5]1([H:13])[C:4]([H:11])([H:12])[O:7][C:6]1([H:14])[H:15])([H:8])[H:9]"
C       -1.26415503       0.59732700       0.38307863
O       -0.61156145       1.49128118      -0.51988988
C        0.02492161       0.77204258      -1.47373547
C        0.13417906      -1.18292426      -0.62927190
C       -0.27950558      -0.52451480       0.67522855
C        1.12022655       0.07737629       0.82858888
O        1.43250975       0.04584757      -0.56576448
H       -2.18937203       0.22410341      -0.06895611
H       -1.50064597       1.16914710       1.28197483
H        0.56230578       1.47775003      -2.11452847
H        0.84923023      -1.99944558      -0.51000169
H       -0.62237534      -1.45718736      -1.35219297
H       -0.63746187      -1.20468866       1.44927651
H        1.16940961       1.08495106       1.24529882
H        1.81229469      -0.57106556       1.37089475
15
Frame=3 idx=008133 GeodesicLength=0.12489439956725645 rxn_smarts="[C:1]1([H:8])([H:9])[O:2][C@@:3]2([H:10])[C:4]([H:11])([H:12])[C@:5]1([H:13])[C:6]([H:14])([H:15])[O:7]2>>[C:1]([O+:2]=[C-:3][H:10])([C:5]1([H:13])[C:4]([H:11])([H:12])[O:7][C:6]1([H:14])[H:15])([H:8])[H:9]"
C       -1.26384380       0.59632853       0.38267102
O       -0.61772012       1.48799283      -0.52785658
C        0.02374774       0.77246534      -1.47944239
C        0.13859146      -1.17681804      -0.63174516
C       -0.27748911      -0.52339079       0.67557608
C        1.12308532       0.07500349       0.83599398
O        1.44197297       0.04539782      -0.55731567
H       -2.19043169       0.22244433      -0.06547229
H       -1.49567073       1.17233663       1.28017023
H        0.54933713       1.47943194      -2.12862131
H        0.84211890      -2.00380110      -0.51633686
H       -0.62105110      -1.45071860      -1.35243158
H       -0.63591388      -1.20510746       1.44772821
H        1.17202654       1.08213425       1.25395525
H        1.81124037      -0.57369916       1.38312706
15
Frame=4 idx=008133 GeodesicLength=0.16649869720588115 rxn_smarts="[C:1]1([H:8])([H:9])[O:2][C@@:3]2([H:10])[C:4]([H:11])([H:12])[C@:5]1([H:13])[C:6]([H:14])([H:15])[O:7]2>>[C:1]([O+:2]=[C-:3][H:10])([C:5]1([H:13])[C:4]([H:11])([H:12])[O:7][C:6]1([H:14])[H:15])([H:8])[H:9]"
C       -1.26347046       0.59536967       0.38224189
O       -0.62384825       1.48467076      -0.53582840
C        0.02257455       0.77293738      -1.48519542
C        0.14313455      -1.17064443      -0.63420422
C       -0.27543892      -0.52224391       0.67591248
C        1.12595655       0.07256312       0.84352229
O        1.45152748       0.04490840      -0.54868941
H       -2.19141796       0.22082286      -0.06199626
H       -1.49063329       1.17558005       1.27828877
H        0.53589421       1.48098478      -2.14301378
H        0.83492489      -2.00798884      -0.52279578
H       -0.61960064      -1.44421159      -1.35263461
H       -0.63440052      -1.20553128       1.44610838
H        1.17469129       1.07921974       1.26279870
H        1.81010653      -0.57643671       1.39548537
15
Frame=5 idx=008133 GeodesicLength=0.208090435698106 rxn_smarts="[C:1]1([H:8])([H:9])[O:2][C@@:3]2([H:10])[C:4]([H:11])([H:12])[C@:5]1([H:13])[C:6]([H:14])([H:15])[O:7]2>>[C:1]([O+:2]=[C-:3][H:10])([C:5]1([H:13])[C:4]([H:11])([H:12])[O:7][C:6]1([H:14])[H:15])([H:8])[H:9]"
C       -1.26303804       0.59445093       0.38178903
O       -0.62994532       1.48131834      -0.54380553
C        0.02140020       0.77346348      -1.49099706
C        0.14780856      -1.16440072      -0.63665128
C       -0.27335515      -0.52107358       0.67623845
C        1.12884467       0.07005441       0.85117587
O        1.46118167       0.04437610      -0.53988515
H       -2.19233431       0.21924007      -0.05853396
H       -1.48554136       1.17887370       1.27632972
H        0.52196965       1.48239213      -2.15769564
H        0.82764639      -2.01199936      -0.52937685
H       -0.61802522      -1.43766210      -1.35280578
H       -0.63292321      -1.20596112       1.44442042
H        1.17741093       1.07620893       1.27182630
H        1.80890052      -0.57928120       1.40797146
15
Frame=6 idx=008133 GeodesicLength=0.24962169103731488 rxn_smarts="[C:1]1([H:8])([H:9])[O:2][C@@:3]2([H:10])[C:4]([H:11])([H:12])[C@:5]1([H:13])[C:6]([H:14])([H:15])[O:7]2>>[C:1]([O+:2]=[C-:3][H:10])([C:5]1([H:13])[C:4]([H:11])([H:12])[O:7][C:6]1([H:14])[H:15])([H:8])[H:9]"
C       -1.26252767       0.59357996       0.38131200
O       -0.63598774       1.47793905      -0.55177750
C        0.02024717       0.77404925      -1.49684153
C        0.15262138      -1.15808593      -0.63907957
C       -0.27123283      -0.51987609       0.67654811
C        1.13173031       0.06746745       0.85895720
O        1.47092430       0.04378211      -0.53088329
H       -2.19315626       0.21771230      -0.05509209
H       -1.48037600       1.18222240       1.27429326
H        0.50748169       1.48363487      -2.17268011
H        0.82031330      -2.01582173      -0.53607035
H       -0.61630864      -1.43106368      -1.35294257
H       -0.63148057      -1.20638649       1.44264188
H        1.18016009       1.07308752       1.28104292
H        1.80759150      -0.58224101       1.42057164
15
Frame=7 idx=008133 GeodesicLength=0.291141914061105 rxn_smarts="[C:1]1([H:8])([H:9])[O:2][C@@:3]2([H:10])[C:4]([H:11])([H:12])[C@:5]1([H:13])[C:6]([H:14])([H:15])[O:7]2>>[C:1]([O+:2]=[C-:3][H:10])([C:5]1([H:13])[C:4]([H:11])([H:12])[O:7][C:6]1([H:14])[H:15])([H:8])[H:9]"
C       -1.26195274       0.59275502       0.38080907
O       -0.64198851       1.47453679      -0.55975049
C        0.01909671       0.77469633      -1.50273391
C        0.15757345      -1.15169234      -0.64149891
C       -0.26907495      -0.51865287       0.67684492
C        1.13463227       0.06480637       0.86687343
O        1.48077723       0.04314104      -0.52168869
H       -2.19390229       0.21623156      -0.05166875
H       -1.47515236       1.18562518       1.27217703
H        0.49245272       1.48468599      -2.18796974
H        0.81290440      -2.01944611      -0.54288621
H       -0.61445548      -1.42440829      -1.35305702
H       -0.63007791      -1.20682011       1.44078528
H        1.18296458       1.06986242       1.29045700
H        1.80620290      -0.58532098       1.43330699
15
Frame=8 idx=008133 GeodesicLength=0.33264679011987813 rxn_smarts="[C:1]1([H:8])([H:9])[O:2][C@@:3]2([H:10])[C:4]([H:11])([H:12])[C@:5]1([H:13])[C:6]([H:14])([H:15])[O:7]2>>[C:1]([O+:2]=[C-:3][H:10])([C:5]1([H:13])[C:4]([H:11])([H:12])[O:7][C:6]1([H:14])[H:15])([H:8])[H:9]"
C       -1.26130535       0.59198262       0.38028282
O       -0.64793658       1.47111880      -0.56772019
C        0.01796512       0.77541276      -1.50867136
C        0.16267412      -1.14521898      -0.64390509
C       -0.26687983      -0.51740463       0.67712840
C        1.13754289       0.06206248       0.87493269
O        1.49074061       0.04244660      -0.51228543
H       -2.19456588       0.21480931      -0.04826132
H       -1.46985843       1.18908895       1.26998441
H        0.47682686       1.48552947      -2.20361744
H        0.80544190      -2.02286276      -0.54983028
H       -0.61245498      -1.41768746      -1.35314803
H       -0.62871729      -1.20726559       1.43884048
H        1.18581181       1.06652126       1.30008527
H        1.80471505      -0.58853282       1.44618505
15
Frame=9 idx=008133 GeodesicLength=0.37413344787575387 rxn_smarts="[C:1]1([H:8])([H:9])[O:2][C@@:3]2([H:10])[C:4]([H:11])([H:12])[C@:5]1([H:13])[C:6]([H:14])([H:15])[O:7]2>>[C:1]([O+:2]=[C-:3][H:10])([C:5]1([H:13])[C:4]([H:11])([H:12])[O:7][C:6]1([H:14])[H:15])([H:8])[H:9]"
C       -1.26057689       0.59126638       0.37973143
O       -0.65382060       1.46768810      -0.57567929
C        0.01685776       0.77620352      -1.51464546
C        0.16793213      -1.13865008      -0.64630331
C       -0.26464397      -0.51612687       0.67739404
C        1.14046329       0.05923151       0.88314519
O        1.50082203       0.04170538      -0.50265903
H       -2.19513454       0.21345013      -0.04487581
H       -1.46448767       1.19261297       1.26771550
H        0.46054413       1.48610248      -2.21964998
H        0.79792230      -2.02604499      -0.55690670
H       -0.61029604      -1.41088080      -1.35322534
H       -0.62740091      -1.20772235       1.43679190
H        1.18870131       1.06305277       1.30994894
H        1.80311768      -0.59188815       1.45921790
15
Frame=10 idx=008133 GeodesicLength=0.4155880052606255 rxn_smarts="[C:1]1([H:8])([H:9])[O:2][C@@:3]2([H:10])[C:4]([H:11])([H:12])[C@:5]1([H:13])[C:6]([H:14])([H:15])[O:7]2>>[C:1]([O+:2]=[C-:3][H:10])([C:5]1([H:13])[C:4]([H:11])([H:12])[O:7][C:6]1([H:14])[H:15])([H:8])[H:9]"
C       -1.25975799       0.59060871       0.37915004
O       -0.65962963       1.46424401      -0.58362991
C        0.01578364       0.77707112      -1.52066216
C        0.17334713      -1.13198895      -0.64869168
C       -0.26236591      -0.51481881       0.67764008
C        1.14338464       0.05630964       0.89151462
O        1.51101681       0.04090103      -0.49279870
H       -2.19559962       0.21216324      -0.04151988
H       -1.45902425       1.19619884       1.26536484
H        0.44355830       1.48639908      -2.23604563
H        0.79036618      -2.02898912      -0.56412000
H       -0.60797606      -1.40398666      -1.35329155
H       -0.62613150      -1.20818035       1.43463745
H        1.19162814       1.05945225       1.32004737
H        1.80140011      -0.59538402       1.47240510
15
Frame=11 idx=008133 GeodesicLength=0.4570361329964024 rxn_smarts="[C:1]1([H:8])([H:9])[O:2][C@@:3]2([H:10])[C:4]([H:11])([H:12])[C@:5]1([H:13])[C:6]([H:14])([H:15])[O:7]2>>[C:1]([O+:2]=[C-:3][H:10])([C:5]1([H:13])[C:4]([H:11])([H:12])[O:7][C:6]1([H:14])[H:15])([H:8])[H:9]"
C       -1.25885472       0.59001775       0.37854109
O       -0.66536213       1.46080574      -0.59156829
C        0.01474895       0.77803278      -1.52671810
C        0.17893117      -1.12522540      -0.65107340
C       -0.26004603      -0.51348128       0.67786692
C        1.14631482       0.05328987       0.90004879
O        1.52134583       0.04004023      -0.48269710
H       -2.19597040       0.21095756      -0.03819236
H       -1.45347923       1.19985156       1.26293890
H        0.42582918       1.48636260      -2.25284579
H        0.78278103      -2.03168038      -0.57147274
H       -0.60548254      -1.39698971      -1.35335534
H       -0.62491581      -1.20865307       1.43237262
H        1.19459618       1.05571368       1.33039662
H        1.79956371      -0.59904192       1.48575817
15
Frame=12 idx=008133 GeodesicLength=0.4984809672062898 rxn_smarts="[C:1]1([H:8])([H:9])[O:2][C@@:3]2([H:10])[C:4]([H:11])([H:12])[C@:5]1([H:13])[C:6]([H:14])([H:15])[O:7]2>>[C:1]([O+:2]=[C-:3][H:10])([C:5]1([H:13])[C:4]([H:11])([H:12])[O:7][C:6]1([H:14])[H:15])([H:8])[H:9]"
C       -1.25785331       0.58950126       0.37790404
O       -0.67099952       1.45737988      -0.59948800
C        0.01377089       0.77909767      -1.53280657
C        0.18469539      -1.11834833      -0.65344903
C       -0.25768176      -0.51211196       0.67807177
C        1.14924882       0.05016285       0.90876389
O        1.53181371       0.03912296      -0.47233006
H       -2.19623199       0.20984884      -0.03489989
H       -1.44783262       1.20357675       1.26043832
H        0.40725985       1.48593991      -2.27010496
H        0.77518617      -2.03409683      -0.57897703
H       -0.60280065      -1.38987194      -1.35342393
H       -0.62375920      -1.20914318       1.42997995
H        1.19759906       1.05182003       1.34102464
H        1.79758517      -0.60287792       1.49929687
15
Frame=13 idx=008133 GeodesicLength=0.5399088116228703 rxn_smarts="[C:1]1([H:8])([H:9])[O:2][C@@:3]2([H:10])[C:4]([H:11])([H:12])[C@:5]1([H:13])[C:6]([H:14])([H:15])[O:7]2>>[C:1]([O+:2]=[C-:3][H:10])([C:5]1([H:13])[C:4]([H:11])([H:12])[O:7][C:6]1([H:14])[H:15])([H:8])[H:9]"
C       -1.25675118       0.58906346       0.37723570
O       -0.67653497       1.45397348      -0.60738668
C        0.01285289       0.78027612      -1.53892924
C        0.19064271      -1.11135087      -0.65582255
C       -0.25527151      -0.51070698       0.67825041
C        1.15218491       0.04692695       0.91766022
O        1.54242483       0.03814253      -0.46169277
H       -2.19638084       0.20884314      -0.03164960
H       -1.44208615       1.20737345       1.25786246
H        0.38782111       1.48508070      -2.28778941
H        0.76758891      -2.03622272      -0.58663264
H       -0.59992684      -1.38262573      -1.35350232
H       -0.62266130      -1.20964816       1.42745111
H        1.20063604       1.04777024       1.35192910
H        1.79546139      -0.60689560       1.51301621
15
Frame=14 idx=008133 GeodesicLength=0.5813331400706647 rxn_smarts="[C:1]1([H:8])([H:9])[O:2][C@@:3]2([H:10])[C:4]([H:11])([H:12])[C@:5]1([H:13])[C:6]([H:14])([H:15])[O:7]2>>[C:1]([O+:2]=[C-:3][H:10])([C:5]1([H:13])[C:4]([H:11])([H:12])[O:7][C:6]1([H:14])[H:15])([H:8])[H:9]"
C       -1.25553928       0.58871398       0.37653605
O       -0.68195114       1.45060044      -0.61525763
C        0.01201423       0.78158433      -1.54507998
C        0.19678599      -1.10422059      -0.65819477
C       -0.25281365      -0.50926539       0.67840156
C        1.15512113       0.04357117       0.92675474
O        1.55318977       0.03709983      -0.45076194
H       -2.19640860       0.20795760      -0.02844844
H       -1.43622761       1.21124816       1.25521410
H        0.36741273       1.48371542      -2.30595604
H        0.76001171      -2.03803628      -0.59445259
H       -0.59684371      -1.37522756      -1.35360285
H       -0.62163092      -1.21017253       1.42477289
H        1.20370376       1.04354702       1.36313972
H        1.79317561      -0.61111561       1.52693518
15
Frame=15 idx=008133 GeodesicLength=0.6227650475447298 rxn_smarts="[C:1]1([H:8])([H:9])[O:2][C@@:3]2([H:10])[C:4]([H:11])([H:12])[C@:5]1([H:13])[C:6]([H:14])([H:15])[O:7]2>>[C:1]([O+:2]=[C-:3][H:10])([C:5]1([H:13])[C:4]([H:11])([H:12])[O:7][C:6]1([H:14])[H:15])([H:8])[H:9]"
C       -1.25420693       0.58846421       0.37580431
O       -0.68722597       1.44727840      -0.62309276
C        0.01127929       0.78304410      -1.55125232
C        0.20313984      -1.09694270      -0.66057064
C       -0.25030644      -0.50778491       0.67852136
C        1.15805581       0.04008520       0.93606500
O        1.56412258       0.03599624      -0.43951360
H       -2.19630528       0.20721111      -0.02530559
H       -1.43024505       1.21520680       1.25249800
H        0.34591753       1.48175305      -2.32465060
H        0.75247462      -2.03951506      -0.60244974
H       -0.59353082      -1.36765214      -1.35374347
H       -0.62067884      -1.21072109       1.42192761
H        1.20680068       1.03913433       1.37468776
H        1.79070898      -0.61555754       1.54107466
15
Frame=16 idx=008133 GeodesicLength=0.6642070310114652 rxn_smarts="[C:1]1([H:8])([H:9])[O:2][C@@:3]2([H:10])[C:4]([H:11])([H:12])[C@:5]1([H:13])[C:6]([H:14])([H:15])[O:7]2>>[C:1]([O+:2]=[C-:3][H:10])([C:5]1([H:13])[C:4]([H:11])([H:12])[O:7][C:6]1([H:14])[H:15])([H:8])[H:9]"
C       -1.25273885       0.58832969       0.37503597
O       -0.69233308       1.44402944      -0.63087990
C        0.01067487       0.78468276      -1.55743092
C        0.20972350      -1.08949480      -0.66294983
C       -0.24774574      -0.50626102       0.67860376
C        1.16098447       0.03645264       0.94561028
O        1.57523403       0.03483343      -0.42791434
H       -2.19605159       0.20663258      -0.02223990
H       -1.42412483       1.21925534       1.24971118
H        0.32318430       1.47907465      -2.34392395
H        0.74500662      -2.04062617      -0.61063539
H       -0.58996014      -1.35986316      -1.35393568
H       -0.61981204      -1.21129629       1.41888882
H        1.20991925       1.03450387       1.38660970
H        1.78803922      -0.62025296       1.55545020
