12
Frame=0 idx=007065 GeodesicLength=0.0 rxn_smarts="[O:1]=[C:2]1[N:3]([H:8])[C:4]([H:9])([H:10])[C@@:5]2([H:11])[O:6][C@@:7]12[H:12]>>[O:1]([C-:2]1[N:3]([H:8])[C:4]([H:9])([H:10])[C:5]2=[O+:6][C@@:7]12[H:12])[H:11]"
O        0.01709243       1.56694618      -0.83802836
C        0.29920545       0.88604348       0.22426505
N        1.38108753      -0.02470737       0.29333768
C        0.52672322      -1.06613166      -0.32164700
C       -0.93204719      -0.47899185      -0.09284928
O       -1.19180430      -0.67832624       1.31687947
C       -0.88846985       0.62646203       0.98575723
H        2.12394237       0.27435083      -0.32276552
H        0.60801271      -2.02150253       0.19087281
H        0.69921325      -1.17389249      -1.39162657
H       -0.95434925       0.73470022      -1.01041029
H       -1.68860634       1.35504941       0.96621479
12
Frame=1 idx=007065 GeodesicLength=0.09665856561361033 rxn_smarts="[O:1]=[C:2]1[N:3]([H:8])[C:4]([H:9])([H:10])[C@@:5]2([H:11])[O:6][C@@:7]12[H:12]>>[O:1]([C-:2]1[N:3]([H:8])[C:4]([H:9])([H:10])[C:5]2=[O+:6][C@@:7]12[H:12])[H:11]"
O        0.02791569       1.58585964      -0.83447965
C        0.30469268       0.89922877       0.22472470
N        1.37156070      -0.02201181       0.28566284
C        0.52104017      -1.07096044      -0.32036291
C       -0.93583561      -0.48685664      -0.09140948
O       -1.18436448      -0.68117182       1.32075421
C       -0.88770905       0.62318074       0.97865979
H        2.12869721       0.27095403      -0.31526028
H        0.61578643      -2.02388065       0.19476562
H        0.69352477      -1.18519528      -1.38980436
H       -0.96355329       0.74279199      -1.02304537
H       -1.69175522       1.34806147       0.96979488
12
Frame=2 idx=007065 GeodesicLength=0.193240003668102 rxn_smarts="[O:1]=[C:2]1[N:3]([H:8])[C:4]([H:9])([H:10])[C@@:5]2([H:11])[O:6][C@@:7]12[H:12]>>[O:1]([C-:2]1[N:3]([H:8])[C:4]([H:9])([H:10])[C:5]2=[O+:6][C@@:7]12[H:12])[H:11]"
O        0.03905921       1.60512972      -0.83052838
C        0.31023797       0.91241688       0.22537618
N        1.36190172      -0.01925439       0.27753136
C        0.51531463      -1.07590183      -0.31911764
C       -0.93975922      -0.49512693      -0.08978971
O       -1.17675056      -0.68384105       1.32483384
C       -0.88699064       0.61988892       0.97123270
H        2.13338023       0.26753785      -0.30738291
H        0.62379741      -2.02614689       0.19862551
H        0.68762189      -1.19661754      -1.38801289
H       -0.97301003       0.75088387      -1.03594342
H       -1.69480259       1.34103140       0.97317538
12
Frame=3 idx=007065 GeodesicLength=0.28976849083883444 rxn_smarts="[O:1]=[C:2]1[N:3]([H:8])[C:4]([H:9])([H:10])[C@@:5]2([H:11])[O:6][C@@:7]12[H:12]>>[O:1]([C-:2]1[N:3]([H:8])[C:4]([H:9])([H:10])[C:5]2=[O+:6][C@@:7]12[H:12])[H:11]"
O        0.05054321       1.62478617      -0.82613733
C        0.31584475       0.92560679       0.22622638
N        1.35210100      -0.01642721       0.26890307
C        0.50954613      -1.08096062      -0.31791383
C       -0.94381939      -0.50382408      -0.08797180
O       -1.16894127      -0.68631673       1.32912889
C       -0.88631960       0.61658470       0.96345401
H        2.13798782       0.26409034      -0.29909996
H        0.63205823      -2.02828968       0.20244740
H        0.68148787      -1.20817249      -1.38625614
H       -0.98274043       0.75896444      -1.04912304
H       -1.69774831       1.33395837       0.97634234
12
Frame=4 idx=007065 GeodesicLength=0.38628105183107103 rxn_smarts="[O:1]=[C:2]1[N:3]([H:8])[C:4]([H:9])([H:10])[C@@:5]2([H:11])[O:6][C@@:7]12[H:12]>>[O:1]([C-:2]1[N:3]([H:8])[C:4]([H:9])([H:10])[C:5]2=[O+:6][C@@:7]12[H:12])[H:11]"
O        0.06239316       1.64486494      -0.82126018
C        0.32151640       0.93879679       0.22728104
N        1.34214799      -0.01352113       0.25973108
C        0.50373417      -1.08614225      -0.31675479
C       -0.94801816      -0.51297164      -0.08593543
O       -1.16091267      -0.68857831       1.33365007
C       -0.88570049       0.61326654       0.95529934
H        2.14251516       0.26059770      -0.29037215
H        0.64058350      -2.03029511       0.20622513
H        0.67510428      -1.21987583      -1.38453839
H       -0.99277179       0.76701622      -1.06260503
H       -1.70059155       1.32684207       0.97927930
12
Frame=5 idx=007065 GeodesicLength=0.4827657523572786 rxn_smarts="[O:1]=[C:2]1[N:3]([H:8])[C:4]([H:9])([H:10])[C@@:5]2([H:11])[O:6][C@@:7]12[H:12]>>[O:1]([C-:2]1[N:3]([H:8])[C:4]([H:9])([H:10])[C:5]2=[O+:6][C@@:7]12[H:12])[H:11]"
O        0.07462283       1.66539590      -0.81585589
C        0.32725647       0.95198433       0.22854955
N        1.33203129      -0.01052518       0.24996497
C        0.49787793      -1.09145196      -0.31564268
C       -0.95235571      -0.52259251      -0.08366126
O       -1.15263938      -0.69060409       1.33840851
C       -0.88513689       0.60992961       0.94674482
H        2.14695571       0.25704605      -0.28116000
H        0.64938694      -2.03215088       0.20995554
H        0.66845104      -1.23174578      -1.38286314
H       -1.00311807       0.77503562      -1.07641174
H       -1.70333217       1.31967890       0.98197132
12
Frame=6 idx=007065 GeodesicLength=0.5792665648742962 rxn_smarts="[O:1]=[C:2]1[N:3]([H:8])[C:4]([H:9])([H:10])[C@@:5]2([H:11])[O:6][C@@:7]12[H:12]>>[O:1]([C-:2]1[N:3]([H:8])[C:4]([H:9])([H:10])[C:5]2=[O+:6][C@@:7]12[H:12])[H:11]"
O        0.08726182       1.68642175      -0.80986501
C        0.33306820       0.96516694       0.23003408
N        1.32173859      -0.00742636       0.23953969
C        0.49197629      -1.09689611      -0.31458315
C       -0.95683285      -0.53271417      -0.08112163
O       -1.14408918      -0.69236442       1.34341459
C       -0.88463236       0.60657162       0.93775913
H        2.15129950       0.25341395      -0.27139933
H        0.65848882      -2.03383627       0.21362681
H        0.66150402      -1.24380263      -1.38123623
H       -1.01381759       0.78299613      -1.09056848
H       -1.70596526       1.31246957       0.98439952
12
Frame=7 idx=007065 GeodesicLength=0.6757858332125756 rxn_smarts="[O:1]=[C:2]1[N:3]([H:8])[C:4]([H:9])([H:10])[C@@:5]2([H:11])[O:6][C@@:7]12[H:12]>>[O:1]([C-:2]1[N:3]([H:8])[C:4]([H:9])([H:10])[C:5]2=[O+:6][C@@:7]12[H:12])[H:11]"
O        0.10033183       1.70798199      -0.80323028
C        0.33895606       0.97834063       0.23174141
N        1.31125627      -0.00421101       0.22838762
C        0.48602774      -1.10248055      -0.31358189
C       -0.96145001      -0.54336242      -0.07829181
O       -1.13523000      -0.69382951       1.34867562
C       -0.88418904       0.60318775       0.92831261
H        2.15553500       0.24968178      -0.26103220
H        0.66790955      -2.03533416       0.21723609
H        0.65423880      -1.25607003      -1.37966203
H       -1.02489918       0.79088440      -1.10510114
H       -1.70848702       1.30521115       0.98654600
12
Frame=8 idx=007065 GeodesicLength=0.7723322806245306 rxn_smarts="[O:1]=[C:2]1[N:3]([H:8])[C:4]([H:9])([H:10])[C@@:5]2([H:11])[O:6][C@@:7]12[H:12]>>[O:1]([C-:2]1[N:3]([H:8])[C:4]([H:9])([H:10])[C:5]2=[O+:6][C@@:7]12[H:12])[H:11]"
O        0.11385621       1.73011969      -0.79588940
C        0.34492460       0.99150148       0.23367449
N        1.30056791      -0.00086005       0.21642164
C        0.48003055      -1.10821195      -0.31264643
C       -0.96620531      -0.55456578      -0.07513749
O       -1.12602013      -0.69496527       1.35420035
C       -0.88380860       0.59977290       0.91836891
H        2.15964419       0.24582133      -0.24996975
H        0.67767593      -2.03662104       0.22077131
H        0.64662239      -1.26857587      -1.37814585
H       -1.03639775       0.79868247      -1.12003876
H       -1.71088999       1.29790208       0.98839098
12
Frame=9 idx=007065 GeodesicLength=0.8690647988118865 rxn_smarts="[O:1]=[C:2]1[N:3]([H:8])[C:4]([H:9])([H:10])[C@@:5]2([H:11])[O:6][C@@:7]12[H:12]>>[O:1]([C-:2]1[N:3]([H:8])[C:4]([H:9])([H:10])[C:5]2=[O+:6][C@@:7]12[H:12])[H:11]"
O        0.12787533       1.75290519      -0.78771399
C        0.35098820       1.00464396       0.23582878
N        1.28962599       0.00265964       0.20347149
C        0.47398483      -1.11408793      -0.31181128
C       -0.97106969      -0.56637187      -0.07158163
O       -1.11638264      -0.69570113       1.36002342
C       -0.88348533       0.59632236       0.90785607
H        2.16359773       0.24176209      -0.23801308
H        0.68783232      -2.03765717       0.22421449
H        0.63859621      -1.28135078      -1.37672119
H       -1.04840277       0.80633531      -1.13543678
H       -1.71316017       1.29054031       0.98988372
12
Frame=10 idx=007065 GeodesicLength=0.9658501427903633 rxn_smarts="[O:1]=[C:2]1[N:3]([H:8])[C:4]([H:9])([H:10])[C@@:5]2([H:11])[O:6][C@@:7]12[H:12]>>[O:1]([C-:2]1[N:3]([H:8])[C:4]([H:9])([H:10])[C:5]2=[O+:6][C@@:7]12[H:12])[H:11]"
O        0.14239210       1.77637294      -0.77868965
C        0.35714667       1.01776430       0.23819163
N        1.27842669       0.00637426       0.18943328
C        0.46788913      -1.12011837      -0.31107798
C       -0.97605810      -0.57879209      -0.06761797
O       -1.10627185      -0.69601868       1.36613557
C       -0.88321497       0.59283408       0.89676057
H        2.16736880       0.23746914      -0.22502830
H        0.69841454      -2.03840762       0.22754609
H        0.63012466      -1.29444225      -1.37538300
H       -1.06093598       0.81383932      -1.15130506
H       -1.71528169       1.28312497       0.99103481
12
Frame=11 idx=007065 GeodesicLength=1.0626482525104028 rxn_smarts="[O:1]=[C:2]1[N:3]([H:8])[C:4]([H:9])([H:10])[C@@:5]2([H:11])[O:6][C@@:7]12[H:12]>>[O:1]([C-:2]1[N:3]([H:8])[C:4]([H:9])([H:10])[C:5]2=[O+:6][C@@:7]12[H:12])[H:11]"
O        0.15741035       1.80057114      -0.76875093
C        0.36340896       1.03085503       0.24075549
N        1.26694222       0.01032055       0.17415138
C        0.46174429      -1.12630474      -0.31046652
C       -0.98115949      -0.59185476      -0.06320756
O       -1.09561953      -0.69586590       1.37254150
C       -0.88298824       0.58930158       0.88504085
H        2.17091869       0.23287284      -0.21082081
H        0.70946815      -2.03882727       0.23075011
H        0.62115879      -1.30789544      -1.37414891
H       -1.07405294       0.82117308      -1.16767416
H       -1.71723124       1.27565389       0.99182958
12
Frame=12 idx=007065 GeodesicLength=1.1594762894231454 rxn_smarts="[O:1]=[C:2]1[N:3]([H:8])[C:4]([H:9])([H:10])[C@@:5]2([H:11])[O:6][C@@:7]12[H:12]>>[O:1]([C-:2]1[N:3]([H:8])[C:4]([H:9])([H:10])[C:5]2=[O+:6][C@@:7]12[H:12])[H:11]"
O        0.17294969       1.82556822      -0.75781503
C        0.36978384       1.04390900       0.24348531
N        1.25513377       0.01454877       0.15740311
C        0.45554988      -1.13264705      -0.31001122
C       -0.98635568      -0.60559402      -0.05829055
O       -1.08431596      -0.69517654       1.37925576
C       -0.88278933       0.58572232       0.87264063
H        2.17418008       0.22787255      -0.19507781
H        0.72105906      -2.03885497       0.23378637
H        0.61162514      -1.32176932      -1.37304240
H       -1.08784323       0.82829570      -1.18458184
H       -1.71897726       1.26812533       0.99224766
12
Frame=13 idx=007065 GeodesicLength=1.2562937624034882 rxn_smarts="[O:1]=[C:2]1[N:3]([H:8])[C:4]([H:9])([H:10])[C@@:5]2([H:11])[O:6][C@@:7]12[H:12]>>[O:1]([C-:2]1[N:3]([H:8])[C:4]([H:9])([H:10])[C:5]2=[O+:6][C@@:7]12[H:12])[H:11]"
O        0.18899449       1.85142089      -0.74584190
C        0.37628639       1.05692107       0.24631904
N        1.24296087       0.01912617       0.13889714
C        0.44931007      -1.13913709      -0.30976779
C       -0.99162521      -0.62003710      -0.05280505
O       -1.07221709      -0.69387734       1.38629627
C       -0.88258208       0.58209862       0.85950546
H        2.17705148       0.22231481      -0.17732156
H        0.73327442      -2.03841209       0.23660208
H        0.60143544      -1.33612640      -1.37211455
H       -1.10242237       0.83516726      -1.20205679
H       -1.72046641       1.26054121       0.99228764
12
Frame=14 idx=007065 GeodesicLength=1.3530772239852933 rxn_smarts="[O:1]=[C:2]1[N:3]([H:8])[C:4]([H:9])([H:10])[C@@:5]2([H:11])[O:6][C@@:7]12[H:12]>>[O:1]([C-:2]1[N:3]([H:8])[C:4]([H:9])([H:10])[C:5]2=[O+:6][C@@:7]12[H:12])[H:11]"
O        0.20555042       1.87820259      -0.73275525
C        0.38293000       1.06988051       0.24918927
N        1.23036920       0.02412895       0.11832017
C        0.44303230      -1.14576158      -0.30978704
C       -0.99692273      -0.63521647      -0.04667113
O       -1.05915424      -0.69188086       1.39365721
C       -0.88233403       0.57842925       0.84556636
H        2.17938810       0.21602870      -0.15706171
H        0.74621094      -2.03740819       0.23912096
H        0.59049007      -1.35104698      -1.37138552
H       -1.11792246       0.84174164      -1.22012254
H       -1.72163756       1.25290244       0.99192922
12
Frame=15 idx=007065 GeodesicLength=1.449785394942508 rxn_smarts="[O:1]=[C:2]1[N:3]([H:8])[C:4]([H:9])([H:10])[C@@:5]2([H:11])[O:6][C@@:7]12[H:12]>>[O:1]([C-:2]1[N:3]([H:8])[C:4]([H:9])([H:10])[C:5]2=[O+:6][C@@:7]12[H:12])[H:11]"
O        0.22258525       1.90598266      -0.71853044
C        0.38973768       1.08278262       0.25195874
N        1.21730633       0.02967345       0.09521654
C        0.43673596      -1.15248869      -0.31016437
C       -1.00219203      -0.65116177      -0.03979479
O       -1.04487748      -0.68908537       1.40136175
C       -0.88197009       0.57472546       0.83074871
H        2.18092686       0.20872945      -0.13347451
H        0.76000976      -2.03571934       0.24123247
H        0.57865889      -1.36661354      -1.37092859
H       -1.13453497       0.84795904      -1.23880176
H       -1.72238616       1.24521603       0.99117624
12
Frame=16 idx=007065 GeodesicLength=1.5463923493511686 rxn_smarts="[O:1]=[C:2]1[N:3]([H:8])[C:4]([H:9])([H:10])[C@@:5]2([H:11])[O:6][C@@:7]12[H:12]>>[O:1]([C-:2]1[N:3]([H:8])[C:4]([H:9])([H:10])[C:5]2=[O+:6][C@@:7]12[H:12])[H:11]"
O        0.24005670       1.93483291      -0.70316946
C        0.39674947       1.09562208       0.25443929
N        1.20375126       0.03591242       0.06903429
C        0.43046365      -1.15926364      -0.31102306
C       -1.00736434      -0.66790398      -0.03206328
O       -1.02907773      -0.68536997       1.40946052
C       -0.88138757       0.57099949       0.81497905
H        2.18123772       0.20002774      -0.10551417
H        0.77484816      -2.03319455       0.24279791
H        0.56580178      -1.38290733      -1.37085332
H       -1.15250007       0.85375612      -1.25813754
H       -1.72257903       1.23748873       0.99004977
