15
Frame=0 idx=003962 GeodesicLength=0.0 rxn_smarts="[C:1]([C:2]([C:3]([N:4]([C:5](=[O:6])[H:15])[H:14])([H:12])[H:13])([H:10])[H:11])([H:7])([H:8])[H:9]>>[C:1]([C:2]([C:5](=[O:6])[H:15])([H:10])[H:11])([H:7])([H:8])[H:9].[C:3](=[N:4][H:14])([H:12])[H:13]"
C       -1.44529531       0.76484735       0.34814660
C       -0.57920859       0.13713357      -0.72630729
C        0.63409314      -1.34963142       0.26923700
N        1.65469891      -0.64881444       0.75258420
C        1.25948583       0.43078546      -0.45650730
O        1.92001201       0.39889995      -1.46483237
H       -2.44365551       0.99327060      -0.03132377
H       -1.57665144       0.11600469       1.21842752
H       -1.02106408       1.70711501       0.70698319
H       -0.50458407       0.78769285      -1.59873570
H       -1.01348229      -0.78719050      -1.11287096
H        0.81994964      -1.88346069      -0.65597770
H       -0.18701686      -1.70404147       0.88951316
H        1.44635830      -0.24137015       1.65903497
H        1.03636038       1.27875915       0.20262847
15
Frame=1 idx=003962 GeodesicLength=0.08645783187993814 rxn_smarts="[C:1]([C:2]([C:3]([N:4]([C:5](=[O:6])[H:15])[H:14])([H:12])[H:13])([H:10])[H:11])([H:7])([H:8])[H:9]>>[C:1]([C:2]([C:5](=[O:6])[H:15])([H:10])[H:11])([H:7])([H:8])[H:9].[C:3](=[N:4][H:14])([H:12])[H:13]"
C       -1.44988953       0.76933889       0.34804661
C       -0.58329396       0.13679309      -0.72400904
C        0.63335344      -1.36075215       0.26868256
N        1.64354326      -0.64666668       0.75873163
C        1.26694796       0.44607942      -0.46049842
O        1.92418965       0.39528031      -1.47025425
H       -2.44850644       0.99662951      -0.03124477
H       -1.58019141       0.12441501       1.22124212
H       -1.02618987       1.71271612       0.70430101
H       -0.51613993       0.78362263      -1.60035954
H       -1.02567414      -0.78241296      -1.11407795
H        0.83400001      -1.88680457      -0.65831187
H       -0.17304002      -1.73957466       0.89398026
H        1.43487324      -0.25338924       1.67096810
H        1.06601773       1.30472528       0.19280356
15
Frame=2 idx=003962 GeodesicLength=0.17291039318514578 rxn_smarts="[C:1]([C:2]([C:3]([N:4]([C:5](=[O:6])[H:15])[H:14])([H:12])[H:13])([H:10])[H:11])([H:7])([H:8])[H:9]>>[C:1]([C:2]([C:5](=[O:6])[H:15])([H:10])[H:11])([H:7])([H:8])[H:9].[C:3](=[N:4][H:14])([H:12])[H:13]"
C       -1.45452801       0.77393451       0.34795220
C       -0.58753499       0.13637998      -0.72169393
C        0.63244635      -1.37217044       0.26814428
N        1.63141783      -0.64411989       0.76491498
C        1.27436291       0.46175562      -0.46464141
O        1.92828209       0.39168730      -1.47548598
H       -2.45337523       1.00024288      -0.03113344
H       -1.58383465       0.13299906       1.22407568
H       -1.03118123       1.71834740       0.70158867
H       -0.52781176       0.77951421      -1.60184996
H       -1.03815075      -0.77760987      -1.11510477
H        0.84836593      -1.89010225      -0.66041597
H       -0.15793508      -1.77625473       0.89822788
H        1.42258917      -0.26544664       1.68290203
H        1.09688741       1.33084286       0.18251972
15
Frame=3 idx=003962 GeodesicLength=0.2593604591733765 rxn_smarts="[C:1]([C:2]([C:3]([N:4]([C:5](=[O:6])[H:15])[H:14])([H:12])[H:13])([H:10])[H:11])([H:7])([H:8])[H:9]>>[C:1]([C:2]([C:5](=[O:6])[H:15])([H:10])[H:11])([H:7])([H:8])[H:9].[C:3](=[N:4][H:14])([H:12])[H:13]"
C       -1.45923614       0.77864456       0.34784367
C       -0.59195388       0.13589746      -0.71937211
C        0.63134997      -1.38388815       0.26763256
N        1.61827438      -0.64118268       0.77110153
C        1.28171052       0.47783997      -0.46892316
O        1.93226776       0.38814631      -1.48049782
H       -2.45828823       1.00411044      -0.03101448
H       -1.58760331       0.14177808       1.22691594
H       -1.03607188       1.72402677       0.69881655
H       -0.53960350       0.77537223      -1.60321729
H       -1.05092279      -0.77278411      -1.11595186
H        0.86302227      -1.89333760      -0.66226022
H       -0.14156597      -1.81406125       0.90228114
H        1.40957113      -0.27760151       1.69482970
H        1.12904966       1.35703950       0.17181583
15
Frame=4 idx=003962 GeodesicLength=0.3458107234268892 rxn_smarts="[C:1]([C:2]([C:3]([N:4]([C:5](=[O:6])[H:15])[H:14])([H:12])[H:13])([H:10])[H:11])([H:7])([H:8])[H:9]>>[C:1]([C:2]([C:5](=[O:6])[H:15])([H:10])[H:11])([H:7])([H:8])[H:9].[C:3](=[N:4][H:14])([H:12])[H:13]"
C       -1.46404483       0.78348044       0.34769740
C       -0.59657594       0.13535035      -0.71705547
C        0.63003833      -1.39590519       0.26716079
N        1.60406535      -0.63786705       0.77725518
C        1.28896809       0.49436052      -0.47332706
O        1.93612079       0.38468479      -1.48525736
H       -2.46327661       1.00823214      -0.03091859
H       -1.59152635       0.15077446       1.22974625
H       -1.04090247       1.72977334       0.69595181
H       -0.55152025       0.77120240      -1.60447436
H       -1.06400205      -0.76793761      -1.11662342
H        0.87793534      -1.89649249      -0.66381182
H       -0.12378159      -1.85296143       0.90617182
H        1.39591050      -0.28992479       1.70674484
H        1.16259170       1.38323013       0.16074000
15
Frame=5 idx=003962 GeodesicLength=0.43226350782818035 rxn_smarts="[C:1]([C:2]([C:3]([N:4]([C:5](=[O:6])[H:15])[H:14])([H:12])[H:13])([H:10])[H:11])([H:7])([H:8])[H:9]>>[C:1]([C:2]([C:5](=[O:6])[H:15])([H:10])[H:11])([H:7])([H:8])[H:9].[C:3](=[N:4][H:14])([H:12])[H:13]"
C       -1.46899061       0.78845480       0.34748605
C       -0.60142988       0.13474536      -0.71475767
C        0.62848114      -1.40821935       0.26674578
N        1.58874279      -0.63418766       0.78333822
C        1.29611048       0.51134741      -0.47783267
O        1.93981092       0.38133079      -1.48972881
H       -2.46837703       1.01260749      -0.03088161
H       -1.59563871       0.16001254       1.23254642
H       -1.04572105       1.73560807       0.69295773
H       -0.56356853       0.76701168      -1.60563661
H       -1.07740168      -0.76307089      -1.11712778
H        0.89306310      -1.89954631      -0.66503462
H       -0.10441523      -1.89291007       0.90993491
H        1.38172606      -0.30249939       1.71864214
H        1.19760824       1.40931554       0.14934850
15
Frame=6 idx=003962 GeodesicLength=0.518720716462636 rxn_smarts="[C:1]([C:2]([C:3]([N:4]([C:5](=[O:6])[H:15])[H:14])([H:12])[H:13])([H:10])[H:11])([H:7])([H:8])[H:9]>>[C:1]([C:2]([C:5](=[O:6])[H:15])([H:10])[H:11])([H:7])([H:8])[H:9].[C:3](=[N:4][H:14])([H:12])[H:13]"
C       -1.47411848       0.79358151       0.34717631
C       -0.60654807       0.13409149      -0.71249441
C        0.62664189      -1.42082602       0.26640934
N        1.57226215      -0.63016392       0.78930926
C        1.30310974       0.52883358      -0.48241422
O        1.94330152       0.37811537      -1.49387309
H       -2.47363264       1.01723744      -0.03094979
H       -1.59998833       0.16951691       1.23528852
H       -1.05058569       1.74155248       0.68979466
H       -0.57575596       0.76280908      -1.60672228
H       -1.09113585      -0.75818266      -1.11747894
H        0.90834991      -1.90247616      -0.66588907
H       -0.08328329      -1.93384159       0.91361540
H        1.36718316      -0.31542615       1.73051893
H        1.23419994       1.43517866       0.13770939
15
Frame=7 idx=003962 GeodesicLength=0.6051839359072307 rxn_smarts="[C:1]([C:2]([C:3]([N:4]([C:5](=[O:6])[H:15])[H:14])([H:12])[H:13])([H:10])[H:11])([H:7])([H:8])[H:9]>>[C:1]([C:2]([C:5](=[O:6])[H:15])([H:10])[H:11])([H:7])([H:8])[H:9].[C:3](=[N:4][H:14])([H:12])[H:13]"
C       -1.47948091       0.79887572       0.34673009
C       -0.61196675       0.13340032      -0.71028327
C        0.62447807      -1.43371831       0.26617876
N        1.55457842      -0.62581712       0.79512758
C        1.30993552       0.54685453      -0.48704099
O        1.94655006       0.37506900      -1.49764716
H       -2.47909306       1.02212365      -0.03117707
H       -1.60463320       0.17931326       1.23793894
H       -1.05556349       1.74762928       0.68641986
H       -0.58809173       0.75860575      -1.60775225
H       -1.10522002      -0.75326936      -1.11769661
H        0.92372898      -1.90525604      -0.66633183
H       -0.06018585      -1.97567203       0.91725977
H        1.35249079      -0.32882226       1.74237598
H        1.27247317       1.46068360       0.12589820
15
Frame=8 idx=003962 GeodesicLength=0.6916619043693272 rxn_smarts="[C:1]([C:2]([C:3]([N:4]([C:5](=[O:6])[H:15])[H:14])([H:12])[H:13])([H:10])[H:11])([H:7])([H:8])[H:9]>>[C:1]([C:2]([C:5](=[O:6])[H:15])([H:10])[H:11])([H:7])([H:8])[H:9].[C:3](=[N:4][H:14])([H:12])[H:13]"
C       -1.48514096       0.80435397       0.34610328
C       -0.61772689       0.13268657      -0.70814479
C        0.62194024      -1.44688792       0.26608875
N        1.53564837      -0.62117103       0.80075477
C        1.31655693       0.56544873      -0.49167687
O        1.94950921       0.37222315      -1.50100582
H       -2.48481770       1.02726963      -0.03162801
H       -1.60964647       0.18942746       1.24045738
H       -1.06073311       1.75386170       0.68278791
H       -0.60058699       0.75441642      -1.60875207
H       -1.11967237      -0.74832427      -1.11780827
H        0.93912080      -1.90785639      -0.66631635
H       -0.03490905      -2.01829218       0.92091884
H        1.33791973      -0.34282800       1.75422320
H        1.31253826       1.48567217       0.11399804
15
Frame=9 idx=003962 GeodesicLength=0.7781359039691165 rxn_smarts="[C:1]([C:2]([C:3]([N:4]([C:5](=[O:6])[H:15])[H:14])([H:12])[H:13])([H:10])[H:11])([H:7])([H:8])[H:9]>>[C:1]([C:2]([C:5](=[O:6])[H:15])([H:10])[H:11])([H:7])([H:8])[H:9].[C:3](=[N:4][H:14])([H:12])[H:13]"
C       -1.49116197       0.81003280       0.34525050
C       -0.62386958       0.13196563      -0.70609665
C        0.61897447      -1.46032420       0.26618059
N        1.51541368      -0.61624323       0.80616099
C        1.32293786       0.58465536      -0.49627632
O        1.95212103       0.36959834      -1.50388719
H       -2.49086356       1.03267542      -0.03236827
H       -1.61510157       0.19988746       1.24280006
H       -1.06617687       1.76027405       0.67885233
H       -0.61325046       0.75025424      -1.60974161
H       -1.13450639      -0.74334034      -1.11784325
H        0.95443817      -1.91024504      -0.66578692
H       -0.00722978      -2.06156987       0.92461647
H        1.32377056      -0.35758374       1.76604504
H        1.35450441       1.50996313       0.10209424
15
Frame=10 idx=003962 GeodesicLength=0.8646298905359796 rxn_smarts="[C:1]([C:2]([C:3]([N:4]([C:5](=[O:6])[H:15])[H:14])([H:12])[H:13])([H:10])[H:11])([H:7])([H:8])[H:9]>>[C:1]([C:2]([C:5](=[O:6])[H:15])([H:10])[H:11])([H:7])([H:8])[H:9].[C:3](=[N:4][H:14])([H:12])[H:13]"
C       -1.49763004       0.81593260       0.34411367
C       -0.63044510       0.13125862      -0.70416360
C        0.61551520      -1.47401653       0.26650844
N        1.49382528      -0.61105730       0.81132154
C        1.32904675       0.60451951      -0.50078802
O        1.95432563       0.36722534      -1.50623597
H       -2.49730868       1.03835174      -0.03348948
H       -1.62110875       0.21072050       1.24490974
H       -1.07199842       1.76689186       0.67456146
H       -0.62609540       0.74614003      -1.61075407
H       -1.14974481      -0.73830495      -1.11784353
H        0.96957337      -1.91238261      -0.66468823
H        0.02309120      -2.10533658       0.92840042
H        1.31047607      -0.37328615       1.77786436
H        1.39847771       1.53334390       0.09028326
15
Frame=11 idx=003962 GeodesicLength=0.9511511176223869 rxn_smarts="[C:1]([C:2]([C:3]([N:4]([C:5](=[O:6])[H:15])[H:14])([H:12])[H:13])([H:10])[H:11])([H:7])([H:8])[H:9]>>[C:1]([C:2]([C:5](=[O:6])[H:15])([H:10])[H:11])([H:7])([H:8])[H:9].[C:3](=[N:4][H:14])([H:12])[H:13]"
C       -1.50463667       0.82207473       0.34262998
C       -0.63750451       0.13058833      -0.70236832
C        0.61148987      -1.48795279       0.26713870
N        1.47081447      -0.60562848       0.81622784
C        1.33484952       0.62508710      -0.50514736
O        1.95605313       0.36512418      -1.50797797
H       -2.50423256       1.04430840      -0.03509220
H       -1.62778834       0.22195622       1.24672172
H       -1.07831037       1.77374188       0.66986149
H       -0.63913117       0.74209434      -1.61181864
H       -1.16540557      -0.73320415      -1.11785541
H        0.98440770      -1.91422485      -0.66295397
H        0.05629304      -2.14938677       0.93229009
H        1.29855319      -0.39015071       1.78968089
H        1.44454826       1.55557255       0.07866315
15
Frame=12 idx=003962 GeodesicLength=1.0377199943697173 rxn_smarts="[C:1]([C:2]([C:3]([N:4]([C:5](=[O:6])[H:15])[H:14])([H:12])[H:13])([H:10])[H:11])([H:7])([H:8])[H:9]>>[C:1]([C:2]([C:5](=[O:6])[H:15])([H:10])[H:11])([H:7])([H:8])[H:9].[C:3](=[N:4][H:14])([H:12])[H:13]"
C       -1.51228846       0.82848128       0.34072585
C       -0.64510213       0.12998075      -0.70073533
C        0.60681381      -1.50211995       0.26815720
N        1.44629744      -0.59996574       0.82089151
C        1.34031606       0.64640704      -0.50927404
O        1.95723041       0.36331540      -1.50902424
H       -2.51172599       1.05055535      -0.03729843
H       -1.63528773       0.23362469       1.24815944
H       -1.08524208       1.78085137       0.66469335
H       -0.65236174       0.73814070      -1.61296841
H       -1.18150599      -0.72802160      -1.11793520
H        0.99880416      -1.91571937      -0.66050593
H        0.09259589      -2.19346036       0.93629593
H        1.28867947      -0.40844681       1.80148147
H        1.49277688       1.57637726       0.06733682
15
Frame=13 idx=003962 GeodesicLength=1.1243631002242134 rxn_smarts="[C:1]([C:2]([C:3]([N:4]([C:5](=[O:6])[H:15])[H:14])([H:12])[H:13])([H:10])[H:11])([H:7])([H:8])[H:9]>>[C:1]([C:2]([C:5](=[O:6])[H:15])([H:10])[H:11])([H:7])([H:8])[H:9].[C:3](=[N:4][H:14])([H:12])[H:13]"
C       -1.52070134       0.83518260       0.33831835
C       -0.65329441       0.12946596      -0.69928863
C        0.60140378      -1.51650839       0.26966836
N        1.42015778      -0.59407154       0.82536139
C        1.34541355       0.66852538      -0.51306742
O        1.95777170       0.36180047      -1.50926189
H       -2.51989094       1.05709957      -0.04024248
H       -1.64375334       0.24577276       1.24914221
H       -1.09294600       1.78826340       0.65897793
H       -0.66579038       0.73430458      -1.61423649
H       -1.19805608      -0.72273784      -1.11814362
H        1.01262139      -1.91680798      -0.65725324
H        0.13220608      -2.23725894       0.94038158
H        1.28167445      -0.42847484       1.81322041
H        1.54318374       1.59544482       0.05642356
15
Frame=14 idx=003962 GeodesicLength=1.2111482854180604 rxn_smarts="[C:1]([C:2]([C:3]([N:4]([C:5](=[O:6])[H:15])[H:14])([H:12])[H:13])([H:10])[H:11])([H:7])([H:8])[H:9]>>[C:1]([C:2]([C:5](=[O:6])[H:15])([H:10])[H:11])([H:7])([H:8])[H:9].[C:3](=[N:4][H:14])([H:12])[H:13]"
C       -1.53002045       0.84220293       0.33530224
C       -0.66214144       0.12907702      -0.69805666
C        0.59514258      -1.53110192       0.27181835
N        1.39224658      -0.58793172       0.82972590
C        1.35012088       0.69149239      -0.51639509
O        1.95759880       0.36059585      -1.50854648
H       -2.52883798       1.06396666      -0.04411661
H       -1.65341990       0.25842293       1.24954988
H       -1.10158900       1.79600003       0.65265351
H       -0.67939937       0.73061746      -1.61566334
H       -1.21506399      -0.71733379      -1.11856400
H        1.02567651      -1.91742055      -0.65307248
H        0.17525012      -2.28039314       0.94454343
H        1.27872015      -0.45064779       1.82477427
H        1.59571652       1.61245363       0.04604708
15
Frame=15 idx=003962 GeodesicLength=1.2981574196367673 rxn_smarts="[C:1]([C:2]([C:3]([N:4]([C:5](=[O:6])[H:15])[H:14])([H:12])[H:13])([H:10])[H:11])([H:7])([H:8])[H:9]>>[C:1]([C:2]([C:5](=[O:6])[H:15])([H:10])[H:11])([H:7])([H:8])[H:9].[C:3](=[N:4][H:14])([H:12])[H:13]"
C       -1.54042625       0.84957517       0.33154033
C       -0.67171061       0.12885262      -0.69706678
C        0.58788647      -1.54586744       0.27480087
N        1.36234409      -0.58151145       0.83414345
C        1.35441323       0.71534792      -0.51907273
O        1.95663244       0.35970440      -1.50666909
H       -2.53870137       1.07118889      -0.04917109
H       -1.66458270       0.27161494       1.24922515
H       -1.11138284       1.80408813       0.64562833
H       -0.69315327       0.72710703      -1.61728778
H       -1.23252951      -0.71178218      -1.11928858
H        1.03776085      -1.91745988      -0.64779276
H        0.22177199      -2.32239637       0.94876222
H        1.28144826      -0.47551283       1.83587762
H        1.65022923       1.62705107       0.03637084
15
Frame=16 idx=003962 GeodesicLength=1.3855875167823568 rxn_smarts="[C:1]([C:2]([C:3]([N:4]([C:5](=[O:6])[H:15])[H:14])([H:12])[H:13])([H:10])[H:11])([H:7])([H:8])[H:9]>>[C:1]([C:2]([C:5](=[O:6])[H:15])([H:10])[H:11])([H:7])([H:8])[H:9].[C:3](=[N:4][H:14])([H:12])[H:13]"
C       -1.55216299       0.85736004       0.32683982
C       -0.68208983       0.12883987      -0.69635725
C        0.57944397      -1.56076554       0.27889110
N        1.33012046      -0.57475284       0.83890864
C        1.35825019       0.74012970      -0.52082557
O        1.95479078       0.35912853      -1.50332264
H       -2.54966623       1.07881437      -0.05576107
H       -1.67763090       0.28542785       1.24796389
H       -1.12262075       1.81259796       0.63775483
H       -0.70699727       0.72380139      -1.61917404
H       -1.25045137      -0.70605966      -1.12044410
H        1.04862397      -1.91681738      -0.64116768
H        0.27168386      -2.36275210       0.95303489
H        1.29225428      -0.50384114       1.84600596
H        1.70645181       1.63888896       0.02765322
