19
Frame=0 idx=011035 GeodesicLength=0.0 rxn_smarts="[C:1]([C:2]([C:3]([C@@:4]1([H:15])[C:5]([H:16])([H:17])[C@:6]1([O:7][H:19])[H:18])([H:13])[H:14])([H:11])[H:12])([H:8])([H:9])[H:10]>>[C:1]([C:2]([C:3](/[C:4]([C:5]([H:15])([H:16])[H:17])=[C:6](\[O:7][H:19])[H:18])([H:13])[H:14])([H:11])[H:12])([H:8])([H:9])[H:10]"
C       -2.73032959       0.20303282      -0.38071120
C       -1.41377208       0.65552328       0.23663034
C       -0.38812122      -0.47837355       0.32062147
C        0.87352396       0.09994932       0.93537746
C        2.30891347      -0.92027316       0.37963893
C        1.90839477       0.46737031      -0.06105812
O        1.61803285       0.50600230      -1.44151262
H       -2.58384920      -0.16290658      -1.39975074
H       -3.17832176      -0.60727188       0.19937252
H       -3.45124219       1.02161539      -0.42094407
H       -1.58211396       1.05695657       1.23904441
H       -1.00273289       1.48257454      -0.35295270
H       -0.25543514      -0.90698774      -0.68036461
H       -0.79428172      -1.25910520       0.96930394
H        1.56708630      -1.06098561       1.31648150
H        2.13343311      -1.67168638      -0.38273531
H        3.24570611      -0.99453595       0.92138625
H        2.59960525       1.25988181       0.22130335
H        1.12550396       1.30921980      -1.61913085
19
Frame=1 idx=011035 GeodesicLength=0.10397230852048922 rxn_smarts="[C:1]([C:2]([C:3]([C@@:4]1([H:15])[C:5]([H:16])([H:17])[C@:6]1([O:7][H:19])[H:18])([H:13])[H:14])([H:11])[H:12])([H:8])([H:9])[H:10]>>[C:1]([C:2]([C:3](/[C:4]([C:5]([H:15])([H:16])[H:17])=[C:6](\[O:7][H:19])[H:18])([H:13])[H:14])([H:11])[H:12])([H:8])([H:9])[H:10]"
C       -2.73727652       0.20561415      -0.37029307
C       -1.41566697       0.65326123       0.24009950
C       -0.38371544      -0.47652130       0.29307292
C        0.88039258       0.09718896       0.90365390
C        2.30138705      -0.92538629       0.40421021
C        1.91769580       0.47332163      -0.07785991
O        1.64320496       0.51061340      -1.45941767
H       -2.60043911      -0.14241952      -1.39694428
H       -3.17544931      -0.61637200       0.20080225
H       -3.46203700       1.02156922      -0.38860697
H       -1.57568392       1.03601965       1.25130139
H       -1.01573625       1.49208176      -0.34049123
H       -0.25661956      -0.88628575      -0.71630015
H       -0.78191147      -1.27405599       0.92623609
H        1.55456896      -1.04863924       1.35680628
H        2.13728571      -1.69131613      -0.34646657
H        3.23849155      -0.98364662       0.94736562
H        2.61131153       1.26085284       0.21133020
H        1.12019740       1.29412000      -1.63849852
19
Frame=2 idx=011035 GeodesicLength=0.20778832847990317 rxn_smarts="[C:1]([C:2]([C:3]([C@@:4]1([H:15])[C:5]([H:16])([H:17])[C@:6]1([O:7][H:19])[H:18])([H:13])[H:14])([H:11])[H:12])([H:8])([H:9])[H:10]>>[C:1]([C:2]([C:3](/[C:4]([C:5]([H:15])([H:16])[H:17])=[C:6](\[O:7][H:19])[H:18])([H:13])[H:14])([H:11])[H:12])([H:8])([H:9])[H:10]"
C       -2.74367557       0.20791932      -0.35966333
C       -1.41700466       0.65053500       0.24375731
C       -0.37927305      -0.47473363       0.26533367
C        0.88753374       0.09381857       0.87182273
C        2.29315258      -0.93030889       0.42866805
C        1.92699691       0.47891444      -0.09501532
O        1.66783375       0.51585997      -1.47737910
H       -2.61671196      -0.12186750      -1.39361546
H       -3.17217665      -0.62565450       0.20192396
H       -3.47192470       1.02096330      -0.35584446
H       -1.56838413       1.01425771       1.26344861
H       -1.02793257       1.50099598      -0.32727503
H       -0.25791511      -0.86519924      -0.75217386
H       -0.76957707      -1.28877840       0.88240326
H        1.54024016      -1.03352094       1.39671956
H        2.14010128      -1.71065820      -0.30970175
H        3.23018400      -0.97271320       0.97342135
H        2.62291064       1.26135914       0.20131687
H        1.11562241       1.27881107      -1.65814703
19
Frame=3 idx=011035 GeodesicLength=0.31148744591530914 rxn_smarts="[C:1]([C:2]([C:3]([C@@:4]1([H:15])[C:5]([H:16])([H:17])[C@:6]1([O:7][H:19])[H:18])([H:13])[H:14])([H:11])[H:12])([H:8])([H:9])[H:10]>>[C:1]([C:2]([C:3](/[C:4]([C:5]([H:15])([H:16])[H:17])=[C:6](\[O:7][H:19])[H:18])([H:13])[H:14])([H:11])[H:12])([H:8])([H:9])[H:10]"
C       -2.74950421       0.20992404      -0.34881190
C       -1.41777477       0.64733968       0.24759045
C       -0.37478099      -0.47297962       0.23742942
C        0.89495995       0.08982217       0.83990177
C        2.28422265      -0.93509095       0.45300235
C        1.93630631       0.48410723      -0.11250805
O        1.69189737       0.52176767      -1.49539423
H       -2.63263766      -0.10128355      -1.38972979
H       -3.16848108      -0.63512981       0.20275534
H       -3.48088690       1.01974718      -0.32266185
H       -1.56022266       0.99167460       1.27543891
H       -1.03930916       1.50930007      -0.31332734
H       -0.25933113      -0.84372605      -0.78792831
H       -0.75729446      -1.30321875       0.83781602
H        1.52399336      -1.01550108       1.43603487
H        2.14185515      -1.72975522      -0.27243075
H        3.22077959      -0.96173779       0.99955702
H        2.63444190       1.26132742       0.19126445
H        1.11176676       1.26341275      -1.67799838
19
Frame=4 idx=011035 GeodesicLength=0.41510026790480486 rxn_smarts="[C:1]([C:2]([C:3]([C@@:4]1([H:15])[C:5]([H:16])([H:17])[C@:6]1([O:7][H:19])[H:18])([H:13])[H:14])([H:11])[H:12])([H:8])([H:9])[H:10]>>[C:1]([C:2]([C:3](/[C:4]([C:5]([H:15])([H:16])[H:17])=[C:6](\[O:7][H:19])[H:18])([H:13])[H:14])([H:11])[H:12])([H:8])([H:9])[H:10]"
C       -2.75474316       0.21160354      -0.33773731
C       -1.41796419       0.64366482       0.25158211
C       -0.37023274      -0.47124113       0.20938951
C        0.90268656       0.08516770       0.80791672
C        2.27459646      -0.93978756       0.47721749
C        1.94562661       0.48886675      -0.13031537
O        1.71536289       0.52838191      -1.51345242
H       -2.64819133      -0.08073078      -1.38525733
H       -3.16435366      -0.64479149       0.20333136
H       -3.48889185       1.01789404      -0.28909910
H       -1.55120137       0.96829141       1.28722132
H       -1.04984372       1.51696791      -0.29867879
H       -0.26087770      -0.82187529      -0.82350435
H       -0.74508283      -1.31732193       0.79250966
H        1.50575398      -0.99446624       1.47455244
H        2.14252558      -1.74864546      -0.23465493
H        3.21029190      -0.95072519       1.02575709
H        2.64593961       1.26069188       0.18118352
H        1.10859895       1.24805512      -1.69796162
19
Frame=5 idx=011035 GeodesicLength=0.5182661425902158 rxn_smarts="[C:1]([C:2]([C:3]([C@@:4]1([H:15])[C:5]([H:16])([H:17])[C@:6]1([O:7][H:19])[H:18])([H:13])[H:14])([H:11])[H:12])([H:8])([H:9])[H:10]>>[C:1]([C:2]([C:3](/[C:4]([C:5]([H:15])([H:16])[H:17])=[C:6](\[O:7][H:19])[H:18])([H:13])[H:14])([H:11])[H:12])([H:8])([H:9])[H:10]"
C       -2.75941460       0.21290816      -0.32643162
C       -1.41758439       0.63954871       0.25566698
C       -0.36562619      -0.46945205       0.18123370
C        0.91072721       0.08000874       0.77586095
C        2.26416959      -0.94439694       0.50145858
C        1.95503338       0.49313747      -0.14843653
O        1.73824709       0.53576991      -1.53154677
H       -2.66338877      -0.06026138      -1.38014943
H       -3.15978057      -0.65466843       0.20366572
H       -3.49601433       1.01527076      -0.25515033
H       -1.54135488       0.94423439       1.29866960
H       -1.05957757       1.52398393      -0.28345417
H       -0.26255513      -0.79963729      -0.85884604
H       -0.73284775      -1.33090185       0.74668096
H        1.48562564      -0.97091977       1.51186358
H        2.14203775      -1.76729581      -0.19624091
H        3.19867585      -0.93963311       1.05202844
H        2.65752602       1.25936139       0.17104069
H        1.10610164       1.23294316      -1.71791339
19
Frame=6 idx=011035 GeodesicLength=0.6212512133217021 rxn_smarts="[C:1]([C:2]([C:3]([C@@:4]1([H:15])[C:5]([H:16])([H:17])[C@:6]1([O:7][H:19])[H:18])([H:13])[H:14])([H:11])[H:12])([H:8])([H:9])[H:10]>>[C:1]([C:2]([C:3](/[C:4]([C:5]([H:15])([H:16])[H:17])=[C:6](\[O:7][H:19])[H:18])([H:13])[H:14])([H:11])[H:12])([H:8])([H:9])[H:10]"
C       -2.76346097       0.21384455      -0.31491350
C       -1.41659880       0.63495475       0.25986290
C       -0.36094880      -0.46764613       0.15301635
C        0.91910079       0.07415875       0.74378860
C        2.25299795      -0.94898615       0.52564213
C        1.96447257       0.49689865      -0.16684082
O        1.76046843       0.54397109      -1.54965516
H       -2.67816072      -0.03992937      -1.37441646
H       -3.15475738      -0.66472338       0.20377654
H       -3.50214747       1.01193498      -0.22090449
H       -1.53066726       0.91946201       1.30979552
H       -1.06842943       1.53032224      -0.26761611
H       -0.26436782      -0.77705660      -0.89388245
H       -0.72069279      -1.34402181       0.70029043
H        1.46349312      -0.94434454       1.54791621
H        2.14036914      -1.78578341      -0.15724525
H        3.18599697      -0.92849437       1.07829317
H        2.66915846       1.25728578       0.16087488
H        1.10417400       1.21815297      -1.73778251
19
Frame=7 idx=011035 GeodesicLength=0.7240773853569471 rxn_smarts="[C:1]([C:2]([C:3]([C@@:4]1([H:15])[C:5]([H:16])([H:17])[C@:6]1([O:7][H:19])[H:18])([H:13])[H:14])([H:11])[H:12])([H:8])([H:9])[H:10]>>[C:1]([C:2]([C:3](/[C:4]([C:5]([H:15])([H:16])[H:17])=[C:6](\[O:7][H:19])[H:18])([H:13])[H:14])([H:11])[H:12])([H:8])([H:9])[H:10]"
C       -2.76685298       0.21439312      -0.30319879
C       -1.41499373       0.62987981       0.26414797
C       -0.35619139      -0.46581417       0.12479044
C        0.92782648       0.06757820       0.71174225
C        2.24107231      -0.95359571       0.54977165
C        1.97394034       0.50013126      -0.18549588
O        1.78198297       0.55305544      -1.56775638
H       -2.69244662      -0.01977311      -1.36804612
H       -3.14926667      -0.67494784       0.20366214
H       -3.50726428       1.00785256      -0.18641155
H       -1.51916199       0.89401159       1.32054340
H       -1.07636629       1.53595249      -0.25120258
H       -0.26631246      -0.75416872      -0.92853085
H       -0.70863957      -1.35662437       0.65341854
H        1.43937650      -0.91465281       1.58251287
H        2.13743928      -1.80413605      -0.11764821
H        3.17226479      -0.91733513       1.10446846
H        2.68086675       1.25440606       0.15070961
H        1.10272656       1.20378739      -1.75747696
19
Frame=8 idx=011035 GeodesicLength=0.8267433507992872 rxn_smarts="[C:1]([C:2]([C:3]([C@@:4]1([H:15])[C:5]([H:16])([H:17])[C@:6]1([O:7][H:19])[H:18])([H:13])[H:14])([H:11])[H:12])([H:8])([H:9])[H:10]>>[C:1]([C:2]([C:3](/[C:4]([C:5]([H:15])([H:16])[H:17])=[C:6](\[O:7][H:19])[H:18])([H:13])[H:14])([H:11])[H:12])([H:8])([H:9])[H:10]"
C       -2.76955952       0.21454861      -0.29132084
C       -1.41274941       0.62431859       0.26850316
C       -0.35134345      -0.46397512       0.09662460
C        0.93692547       0.06019543       0.67977310
C        2.22837749      -0.95826403       0.57386206
C        1.98341799       0.50280624      -0.20437773
O        1.80271107       0.56309895      -1.58580947
H       -2.70619534       0.00015696      -1.36105919
H       -3.14331079      -0.68531832       0.20331516
H       -3.51132030       1.00303621      -0.15176296
H       -1.50684920       0.86792252       1.33087606
H       -1.08333003       1.54085009      -0.23424165
H       -0.26837940      -0.73103169      -0.96269935
H       -0.69671239      -1.36869456       0.60618157
H        1.41331975      -0.88172659       1.61541513
H        2.13319617      -1.82238195      -0.07743303
H        3.15752624      -0.90617365       1.13047363
H        2.69265744       1.25065995       0.14055767
H        1.10161821       1.18997238      -1.77687792
19
Frame=9 idx=011035 GeodesicLength=0.9289923896536506 rxn_smarts="[C:1]([C:2]([C:3]([C@@:4]1([H:15])[C:5]([H:16])([H:17])[C@:6]1([O:7][H:19])[H:18])([H:13])[H:14])([H:11])[H:12])([H:8])([H:9])[H:10]>>[C:1]([C:2]([C:3](/[C:4]([C:5]([H:15])([H:16])[H:17])=[C:6](\[O:7][H:19])[H:18])([H:13])[H:14])([H:11])[H:12])([H:8])([H:9])[H:10]"
C       -2.77161425       0.21431378      -0.27934194
C       -1.40988565       0.61831634       0.27286405
C       -0.34643623      -0.46213449       0.06856992
C        0.94640667       0.05212263       0.64787493
C        2.21482382      -0.96294507       0.59803432
C        1.99293261       0.50490837      -0.22349869
O        1.82258386       0.57421756      -1.60375987
H       -2.71941007       0.01981242      -1.35349331
H       -3.13692678      -0.69579879       0.20270811
H       -3.51437872       0.99747467      -0.11707729
H       -1.49379312       0.84137010       1.34071053
H       -1.08932116       1.54499777      -0.21685553
H       -0.27058442      -0.70774098      -0.99631002
H       -0.68484100      -1.38014060       0.55890193
H        1.38571477      -0.84624436       1.64639038
H        2.12757228      -1.84047818      -0.03645959
H        3.14185671      -0.89496172       1.15623277
H        2.70458653       1.24601316       0.13035224
H        1.10071414       1.17689739      -1.79584295
19
Frame=10 idx=011035 GeodesicLength=1.0310637921928556 rxn_smarts="[C:1]([C:2]([C:3]([C@@:4]1([H:15])[C:5]([H:16])([H:17])[C@:6]1([O:7][H:19])[H:18])([H:13])[H:14])([H:11])[H:12])([H:8])([H:9])[H:10]>>[C:1]([C:2]([C:3](/[C:4]([C:5]([H:15])([H:16])[H:17])=[C:6](\[O:7][H:19])[H:18])([H:13])[H:14])([H:11])[H:12])([H:8])([H:9])[H:10]"
C       -2.77293068       0.21369448      -0.26729926
C       -1.40635385       0.61183066       0.27724984
C       -0.34142965      -0.46033953       0.04074161
C        0.95630437       0.04310237       0.61616770
C        2.20046475      -0.96773785       0.62219819
C        2.00240113       0.50642783      -0.24278702
O        1.84148224       0.58651480      -1.62155342
H       -2.73195365       0.03916998      -1.34538131
H       -3.13009563      -0.70636748       0.20181461
H       -3.51631682       0.99121583      -0.08245110
H       -1.48000025       0.81430542       1.35005053
H       -1.09422245       1.54835801      -0.19901247
H       -0.27289064      -0.68438175      -1.02922947
H       -0.67314192      -1.39103120       0.51157063
H        1.35645135      -0.80742886       1.67522113
H        2.12050443      -1.85849461       0.00517663
H        3.12530353      -0.88381761       1.18159122
H        2.71660602       1.24038975       0.12019764
H        1.09981772       1.16458976      -1.81426569
19
Frame=11 idx=011035 GeodesicLength=1.1329951618559864 rxn_smarts="[C:1]([C:2]([C:3]([C@@:4]1([H:15])[C:5]([H:16])([H:17])[C@:6]1([O:7][H:19])[H:18])([H:13])[H:14])([H:11])[H:12])([H:8])([H:9])[H:10]>>[C:1]([C:2]([C:3](/[C:4]([C:5]([H:15])([H:16])[H:17])=[C:6](\[O:7][H:19])[H:18])([H:13])[H:14])([H:11])[H:12])([H:8])([H:9])[H:10]"
C       -2.77348445       0.21270132      -0.25525743
C       -1.40214521       0.60486410       0.28163273
C       -0.33631730      -0.45863677       0.01324318
C        0.96664016       0.03304544       0.58472561
C        2.18530259      -0.97268086       0.64635289
C        2.01177870       0.50736535      -0.26220281
O        1.85928794       0.60013967      -1.63910751
H       -2.74373425       0.05820266      -1.33677124
H       -3.12283781      -0.71697776       0.20059658
H       -3.51711078       0.98429047      -0.04801732
H       -1.46553472       0.78680640       1.35885041
H       -1.09796519       1.55089660      -0.18076899
H       -0.27527522      -0.66108094      -1.06133352
H       -0.66165358      -1.40137268       0.46436008
H        1.32574970      -0.76518744       1.70168386
H        2.11191342      -1.87645867       0.04749082
H        3.10795745      -0.87281236       1.20640123
H        2.72870579       1.23374092       0.11012155
H        1.09872271       1.15315454      -1.83200011
19
Frame=12 idx=011035 GeodesicLength=1.2348094325805923 rxn_smarts="[C:1]([C:2]([C:3]([C@@:4]1([H:15])[C:5]([H:16])([H:17])[C@:6]1([O:7][H:19])[H:18])([H:13])[H:14])([H:11])[H:12])([H:8])([H:9])[H:10]>>[C:1]([C:2]([C:3](/[C:4]([C:5]([H:15])([H:16])[H:17])=[C:6](\[O:7][H:19])[H:18])([H:13])[H:14])([H:11])[H:12])([H:8])([H:9])[H:10]"
C       -2.77325000       0.21136265      -0.24330204
C       -1.39725286       0.59742160       0.28598169
C       -0.33109664      -0.45709348      -0.01380298
C        0.97743548       0.02185226       0.55363544
C        2.16933970      -0.97781204       0.67049048
C        2.02099784       0.50773946      -0.28169095
O        1.87583926       0.61527000      -1.65630990
H       -2.75466895       0.07685689      -1.32774918
H       -3.11519390      -0.72756405       0.19901563
H       -3.51672845       0.97677993      -0.01396495
H       -1.45045996       0.75896743       1.36708071
H       -1.10046587       1.55258278      -0.16219425
H       -0.27771355      -0.63801102      -1.09248424
H       -0.65040178      -1.41119814       0.41751465
H        1.29388358      -0.71946181       1.72552111
H        2.10174832      -1.89438599       0.09046771
H        3.08994288      -0.86203302       1.23050294
H        2.74086135       1.22602795       0.10016219
H        1.09718356       1.14269859      -1.84887403
19
Frame=13 idx=011035 GeodesicLength=1.3363623803685796 rxn_smarts="[C:1]([C:2]([C:3]([C@@:4]1([H:15])[C:5]([H:16])([H:17])[C@:6]1([O:7][H:19])[H:18])([H:13])[H:14])([H:11])[H:12])([H:8])([H:9])[H:10]>>[C:1]([C:2]([C:3](/[C:4]([C:5]([H:15])([H:16])[H:17])=[C:6](\[O:7][H:19])[H:18])([H:13])[H:14])([H:11])[H:12])([H:8])([H:9])[H:10]"
C       -2.77226243       0.20971583      -0.23153351
C       -1.39169173       0.58954257       0.29024423
C       -0.32578537      -0.45577707      -0.04030395
C        0.98870601       0.00952405       0.52291098
C        2.15254678      -0.98309653       0.69468783
C        2.03002840       0.50756391      -0.30125004
O        1.89099484       0.63209179      -1.67302219
H       -2.76473657       0.09511954      -1.31841420
H       -3.10722980      -0.73806195       0.19701722
H       -3.51522656       0.96875367       0.01953239
H       -1.43484826       0.73094951       1.37470647
H       -1.10168705       1.55340583      -0.14341208
H       -0.28020236      -0.61536826      -1.12258021
H       -0.63935332      -1.42052725       0.37136460
H        1.26132793      -0.67069964       1.74651021
H        2.08997310      -1.91224735       0.13422006
H        3.07138804      -0.85149843       1.25378063
H        2.75308254       1.21722195       0.09026871
H        1.09497582       1.13338781      -1.86472716
19
Frame=14 idx=011035 GeodesicLength=1.4379206303373433 rxn_smarts="[C:1]([C:2]([C:3]([C@@:4]1([H:15])[C:5]([H:16])([H:17])[C@:6]1([O:7][H:19])[H:18])([H:13])[H:14])([H:11])[H:12])([H:8])([H:9])[H:10]>>[C:1]([C:2]([C:3](/[C:4]([C:5]([H:15])([H:16])[H:17])=[C:6](\[O:7][H:19])[H:18])([H:13])[H:14])([H:11])[H:12])([H:8])([H:9])[H:10]"
C       -2.77046101       0.20778511      -0.22003945
C       -1.38544534       0.58120833       0.29441129
C       -0.32034546      -0.45477870      -0.06608261
C        1.00047964      -0.00417234       0.49271487
C        2.13499476      -0.98866174       0.71883546
C        2.03874124       0.50689581      -0.32075845
O        1.90454781       0.65086321      -1.68909802
H       -2.77377468       0.11294006      -1.30886030
H       -3.09897163      -0.74840962       0.19456818
H       -3.51252851       0.96031249       0.05227400
H       -1.41879305       0.70279589       1.38171502
H       -1.10151945       1.55332535      -0.12447069
H       -0.28267283      -0.59336166      -1.15143787
H       -0.62860915      -1.42945161       0.32606074
H        1.22826205      -0.61823939       1.76435880
H        2.07652287      -1.93011816       0.17860294
H        3.05243500      -0.84144592       1.27600193
H        2.76531063       1.20726863       0.08058621
H        1.09182712       1.12524426      -1.87938205
19
Frame=15 idx=011035 GeodesicLength=1.5395483570886055 rxn_smarts="[C:1]([C:2]([C:3]([C@@:4]1([H:15])[C:5]([H:16])([H:17])[C@:6]1([O:7][H:19])[H:18])([H:13])[H:14])([H:11])[H:12])([H:8])([H:9])[H:10]>>[C:1]([C:2]([C:3](/[C:4]([C:5]([H:15])([H:16])[H:17])=[C:6](\[O:7][H:19])[H:18])([H:13])[H:14])([H:11])[H:12])([H:8])([H:9])[H:10]"
C       -2.76785290       0.20561285      -0.20891940
C       -1.37852700       0.57244038       0.29844037
C       -0.31476871      -0.45419253      -0.09100601
C        1.01277078      -0.01932602       0.46311769
C        2.11670787      -0.99454827       0.74293219
C        2.04704843       0.50579279      -0.34015519
O        1.91630643       0.67184970      -1.70434732
H       -2.78170828       0.13028132      -1.29920028
H       -3.09048703      -0.75853555       0.19163631
H       -3.50865983       0.95156044       0.08405756
H       -1.40239056       0.67463728       1.38808359
H       -1.09990644       1.55232705      -0.10549401
H       -0.28508410      -0.57223589      -1.17892914
H       -0.61819387      -1.43804240       0.28187667
H        1.19511932      -0.56208873       1.77880644
H        2.06136809      -1.94801849       0.22361774
H        3.03323986      -0.83202602       1.29700683
H        2.77753076       1.19612899       0.07114371
H        1.08748720       1.11838310      -1.89266777
19
Frame=16 idx=011035 GeodesicLength=1.6413193738797303 rxn_smarts="[C:1]([C:2]([C:3]([C@@:4]1([H:15])[C:5]([H:16])([H:17])[C@:6]1([O:7][H:19])[H:18])([H:13])[H:14])([H:11])[H:12])([H:8])([H:9])[H:10]>>[C:1]([C:2]([C:3](/[C:4]([C:5]([H:15])([H:16])[H:17])=[C:6](\[O:7][H:19])[H:18])([H:13])[H:14])([H:11])[H:12])([H:8])([H:9])[H:10]"
C       -2.76445603       0.20325009      -0.19827885
C       -1.37094901       0.56325977       0.30229015
C       -0.30904637      -0.45413276      -0.11494941
C        1.02559868      -0.03603296       0.43417872
C        2.09771432      -1.00078696       0.76698662
C        2.05485178       0.50432978      -0.35937956
O        1.92605312       0.69534613      -1.71854766
H       -2.78848120       0.14709917      -1.28956160
H       -3.08185895      -0.76835844       0.18820188
H       -3.50364927       0.94263758       0.11466545
H       -1.38573096       0.64659811       1.39380015
H       -1.09678747       1.55040108      -0.08661206
H       -0.28739329      -0.55226321      -1.20494382
H       -0.60811672      -1.44640001       0.23910387
H        1.16236091      -0.50229326       1.78956718
H        2.04448996      -1.96596235       0.26928757
H        3.01396674      -0.82339452       1.31664727
H        2.78972766       1.18376954       0.06195939
H        1.08170611       1.11293324      -1.90441530
