19
Frame=0 idx=011139 GeodesicLength=0.0 rxn_smarts="[C:1]([C:2]([O:3][C:4]([C:5]1([H:15])[C:6]([H:16])([H:17])[C:7]1([H:18])[H:19])([H:13])[H:14])([H:11])[H:12])([H:8])([H:9])[H:10]>>[C:1]([C:2](=[O:3])[H:12])([H:8])([H:9])[H:10].[C:4](=[C:5]([C:6]([C:7]([H:11])([H:18])[H:19])([H:16])[H:17])[H:15])([H:13])[H:14]"
C        2.22468755       0.51294759      -0.49108413
C        1.27380491       0.58754645       0.68846882
O        1.10294033      -0.49811643       1.38398545
C       -0.43369875      -1.45527861       1.00251337
C       -1.48079260      -0.63915329       0.61742654
C       -1.89642466      -0.36722894      -0.79354994
C       -0.98990264       0.79700396      -0.74870277
H        2.22085698       1.44167886      -1.06776801
H        3.24407130       0.32653637      -0.14813808
H        1.94242840      -0.31188983      -1.15138008
H        0.15864361       0.81407635       0.15269399
H        1.35762329       1.50646570       1.28969109
H       -0.01508070      -2.13524255       0.26829552
H       -0.44201068      -1.82735273       2.01577665
H       -2.02292668      -0.09416899       1.38265073
H       -1.58822177      -1.14359304      -1.49137553
H       -2.95567186      -0.15157329      -0.91604794
H       -0.26518679       0.90078635      -1.55219296
H       -1.43513926       1.73655616      -0.44126276
19
Frame=1 idx=011139 GeodesicLength=0.1637905318567935 rxn_smarts="[C:1]([C:2]([O:3][C:4]([C:5]1([H:15])[C:6]([H:16])([H:17])[C:7]1([H:18])[H:19])([H:13])[H:14])([H:11])[H:12])([H:8])([H:9])[H:10]>>[C:1]([C:2](=[O:3])[H:12])([H:8])([H:9])[H:10].[C:4](=[C:5]([C:6]([C:7]([H:11])([H:18])[H:19])([H:16])[H:17])[H:15])([H:13])[H:14]"
C        2.26677163       0.56801766      -0.49432638
C        1.31222868       0.56136974       0.68217938
O        1.13431060      -0.55594002       1.32060740
C       -0.46874885      -1.45061026       1.02857168
C       -1.50291047      -0.62386063       0.62604038
C       -1.91800309      -0.38924148      -0.79125772
C       -1.00130107       0.77079198      -0.76357489
H        2.28637645       1.54112705      -0.99215272
H        3.28152789       0.32922060      -0.17083944
H        1.96803074      -0.18781948      -1.22561360
H        0.17676053       0.80681317       0.13995159
H        1.40563737       1.44042135       1.34076483
H       -0.09299812      -2.18087131       0.31902235
H       -0.48457615      -1.79141289       2.05368375
H       -2.04075588      -0.05884239       1.37974551
H       -1.61209683      -1.18569162      -1.46700792
H       -2.97529769      -0.16869640      -0.92034765
H       -0.28974819       0.85521402      -1.58101497
H       -1.44520752       1.72001091      -0.48443159
19
Frame=2 idx=011139 GeodesicLength=0.3230994436098762 rxn_smarts="[C:1]([C:2]([O:3][C:4]([C:5]1([H:15])[C:6]([H:16])([H:17])[C:7]1([H:18])[H:19])([H:13])[H:14])([H:11])[H:12])([H:8])([H:9])[H:10]>>[C:1]([C:2](=[O:3])[H:12])([H:8])([H:9])[H:10].[C:4](=[C:5]([C:6]([C:7]([H:11])([H:18])[H:19])([H:16])[H:17])[H:15])([H:13])[H:14]"
C        2.30818536       0.62516176      -0.49437836
C        1.35120204       0.53090607       0.67378991
O        1.16354919      -0.61902006       1.24506233
C       -0.50273115      -1.44321005       1.05477647
C       -1.52441840      -0.60734056       0.63393680
C       -1.94051544      -0.41223886      -0.78855449
C       -1.01297365       0.74281220      -0.78114640
H        2.35182007       1.63833099      -0.90256986
H        3.31748024       0.33312850      -0.19889389
H        1.99279605      -0.04912853      -1.29457109
H        0.19535517       0.79959132       0.12484762
H        1.45542131       1.36089022       1.39319875
H       -0.17438804      -2.22389131       0.37508941
H       -0.52062091      -1.74556280       2.09280232
H       -2.05657941      -0.02069894       1.37513047
H       -1.63820668      -1.22953931      -1.44050411
H       -2.99580137      -0.18652964      -0.92369798
H       -0.31457796       0.80476229      -1.61189901
H       -1.45499643       1.70157672      -0.53241890
19
Frame=3 idx=011139 GeodesicLength=0.47668464513072284 rxn_smarts="[C:1]([C:2]([O:3][C:4]([C:5]1([H:15])[C:6]([H:16])([H:17])[C:7]1([H:18])[H:19])([H:13])[H:14])([H:11])[H:12])([H:8])([H:9])[H:10]>>[C:1]([C:2](=[O:3])[H:12])([H:8])([H:9])[H:10].[C:4](=[C:5]([C:6]([C:7]([H:11])([H:18])[H:19])([H:16])[H:17])[H:15])([H:13])[H:14]"
C        2.34711389       0.68055541      -0.49105146
C        1.38986505       0.49866733       0.66398137
O        1.18786804      -0.68139402       1.16142473
C       -0.53343823      -1.43192957       1.08044053
C       -1.54483474      -0.59065505       0.64017259
C       -1.96217538      -0.43664359      -0.78649669
C       -1.02605914       0.71487692      -0.79997820
H        2.42077937       1.72663389      -0.79964274
H        3.34876609       0.33087815      -0.23497032
H        2.00939889       0.10227011      -1.35426421
H        0.21319403       0.79550641       0.10910009
H        1.50963117       1.27115875       1.44389685
H       -0.25305832      -2.26017564       0.43552170
H       -0.54826503      -1.69057310       2.13116225
H       -2.07219650       0.01696425       1.36785160
H       -1.66184574      -1.27396075      -1.41337401
H       -3.01581305      -0.20806103      -0.92821170
H       -0.34096714       0.75439814      -1.64318637
H       -1.46796326       1.68148340      -0.58237600
19
Frame=4 idx=011139 GeodesicLength=0.6253564835078264 rxn_smarts="[C:1]([C:2]([O:3][C:4]([C:5]1([H:15])[C:6]([H:16])([H:17])[C:7]1([H:18])[H:19])([H:13])[H:14])([H:11])[H:12])([H:8])([H:9])[H:10]>>[C:1]([C:2](=[O:3])[H:12])([H:8])([H:9])[H:10].[C:4](=[C:5]([C:6]([C:7]([H:11])([H:18])[H:19])([H:16])[H:17])[H:15])([H:13])[H:14]"
C        2.38341629       0.73299475      -0.48393708
C        1.42768644       0.46555957       0.65311813
O        1.20616782      -0.74020305       1.07194449
C       -0.56012869      -1.41656663       1.10479609
C       -1.56416939      -0.57403856       0.64461917
C       -1.98315757      -0.46235954      -0.78501386
C       -1.04090876       0.68725441      -0.82001994
H        2.49431917       1.80173008      -0.68484548
H        3.37404012       0.32305378      -0.27980792
H        2.01795731       0.26497421      -1.40054720
H        0.22986580       0.79540419       0.09292461
H        1.56805532       1.17242237       1.49101405
H       -0.32591637      -2.28808027       0.49867676
H       -0.56727698      -1.62801805       2.16695208
H       -2.08748959       0.05371122       1.35807662
H       -1.68314317      -1.31865822      -1.38576636
H       -3.03561047      -0.23332030      -0.93341787
H       -0.36899868       0.70430201      -1.67465983
H       -1.48470861       1.65983803      -0.63410646
19
Frame=5 idx=011139 GeodesicLength=0.7697943005253144 rxn_smarts="[C:1]([C:2]([O:3][C:4]([C:5]1([H:15])[C:6]([H:16])([H:17])[C:7]1([H:18])[H:19])([H:13])[H:14])([H:11])[H:12])([H:8])([H:9])[H:10]>>[C:1]([C:2](=[O:3])[H:12])([H:8])([H:9])[H:10].[C:4](=[C:5]([C:6]([C:7]([H:11])([H:18])[H:19])([H:16])[H:17])[H:15])([H:13])[H:14]"
C        2.41681621       0.78111346      -0.47328507
C        1.46439246       0.43286155       0.64205066
O        1.21794297      -0.79235841       0.98057125
C       -0.58247949      -1.39717381       1.12732519
C       -1.58258873      -0.55787523       0.64711187
C       -2.00314816      -0.48921274      -0.78426898
C       -1.05760389       0.66048796      -0.84074906
H        2.57259834       1.85938114      -0.56207230
H        3.39183311       0.31100856      -0.33448371
H        2.01829294       0.43568988      -1.42924884
H        0.24499223       0.80006852       0.07729384
H        1.63129803       1.06707843       1.53279665
H       -0.38983965      -2.30643570       0.56244984
H       -0.57904943      -1.56029517       2.19879180
H       -2.10305054       0.08864947       1.34582990
H       -1.70127931      -1.36302351      -1.35819258
H       -3.05493012      -0.26241893      -0.93956025
H       -0.39847756       0.65555408      -1.70563430
H       -1.50571942       1.63690047      -0.68672590
19
Frame=6 idx=011139 GeodesicLength=0.9108659210736754 rxn_smarts="[C:1]([C:2]([O:3][C:4]([C:5]1([H:15])[C:6]([H:16])([H:17])[C:7]1([H:18])[H:19])([H:13])[H:14])([H:11])[H:12])([H:8])([H:9])[H:10]>>[C:1]([C:2](=[O:3])[H:12])([H:8])([H:9])[H:10].[C:4](=[C:5]([C:6]([C:7]([H:11])([H:18])[H:19])([H:16])[H:17])[H:15])([H:13])[H:14]"
C        2.44747484       0.82447694      -0.45964079
C        1.49998694       0.40145956       0.63145408
O        1.22363565      -0.83607457       0.89084043
C       -0.60076749      -1.37419274       1.14765188
C       -1.60034555      -0.54233507       0.64772720
C       -2.02228255      -0.51688307      -0.78415164
C       -1.07607898       0.63475424      -0.86187718
H        2.65518588       1.89736791      -0.43614244
H        3.40136479       0.29804823      -0.39853184
H        2.01248820       0.61050932      -1.43755058
H        0.25848542       0.80949060       0.06272626
H        1.69918148       0.95739496       1.56789883
H       -0.44317861      -2.31531110       0.62466703
H       -0.58596883      -1.49005896       2.22592940
H       -2.11903633       0.12152601       1.33143732
H       -1.71655342      -1.40661827      -1.33083721
H       -3.07387456      -0.29477299      -0.94626081
H       -0.42892537       0.60836006      -1.73561873
H       -1.53079150       1.61285895      -0.73972119
19
Frame=7 idx=011139 GeodesicLength=1.049376809569217 rxn_smarts="[C:1]([C:2]([O:3][C:4]([C:5]1([H:15])[C:6]([H:16])([H:17])[C:7]1([H:18])[H:19])([H:13])[H:14])([H:11])[H:12])([H:8])([H:9])[H:10]>>[C:1]([C:2](=[O:3])[H:12])([H:8])([H:9])[H:10].[C:4](=[C:5]([C:6]([C:7]([H:11])([H:18])[H:19])([H:16])[H:17])[H:15])([H:13])[H:14]"
C        2.47548041       0.86303222      -0.44392524
C        1.53479446       0.37204244       0.62208166
O        1.22421688      -0.87049881       0.80592236
C       -0.61573500      -1.34801923       1.16595414
C       -1.61786007      -0.52761690       0.64651262
C       -2.04016444      -0.54521190      -0.78484470
C       -1.09610084       0.61040299      -0.88283822
H        2.74166904       1.91497535      -0.31227549
H        3.40172762       0.28694677      -0.47173717
H        2.00200362       0.78564722      -1.42398079
H        0.27034268       0.82354940       0.05019577
H        1.77244918       0.84524859       1.59547830
H       -0.48566107      -2.31550680       0.68415623
H       -0.59099771      -1.41918315       2.24868160
H       -2.13642326       0.15182612       1.31494048
H       -1.72813864      -1.44902784      -1.30410635
H       -3.09198142      -0.33033054      -0.95405661
H       -0.45985769       0.56376248      -1.76400993
H       -1.55976375       1.58796159      -0.79214867
19
Frame=8 idx=011139 GeodesicLength=1.186144268081264 rxn_smarts="[C:1]([C:2]([O:3][C:4]([C:5]1([H:15])[C:6]([H:16])([H:17])[C:7]1([H:18])[H:19])([H:13])[H:14])([H:11])[H:12])([H:8])([H:9])[H:10]>>[C:1]([C:2](=[O:3])[H:12])([H:8])([H:9])[H:10].[C:4](=[C:5]([C:6]([C:7]([H:11])([H:18])[H:19])([H:16])[H:17])[H:15])([H:13])[H:14]"
C        2.50122600       0.89751133      -0.42675606
C        1.56922975       0.34455335       0.61418215
O        1.22083231      -0.89616568       0.72700372
C       -0.62829690      -1.31895669       1.18259705
C       -1.63549707      -0.51364993       0.64367665
C       -2.05673577      -0.57412820      -0.78628428
C       -1.11746156       0.58739168      -0.90347644
H        2.83156123       1.91318708      -0.19427906
H        3.39251367       0.28099822      -0.55283943
H        1.98943917       0.95853628      -1.38825930
H        0.28076911       0.84169964       0.03998043
H        1.85117784       0.73099701       1.61489058
H       -0.51843783      -2.30822359       0.74062247
H       -0.59645437      -1.34849857       2.26783918
H       -2.15571192       0.17968743       1.29647779
H       -1.73599554      -1.49020286      -1.27793857
H       -3.10909031      -0.36889285      -0.96299692
H       -0.49089499       0.52190157      -1.79069417
H       -1.59217282       1.56225478      -0.84374577
19
Frame=9 idx=011139 GeodesicLength=1.3216886546189024 rxn_smarts="[C:1]([C:2]([O:3][C:4]([C:5]1([H:15])[C:6]([H:16])([H:17])[C:7]1([H:18])[H:19])([H:13])[H:14])([H:11])[H:12])([H:8])([H:9])[H:10]>>[C:1]([C:2](=[O:3])[H:12])([H:8])([H:9])[H:10].[C:4](=[C:5]([C:6]([C:7]([H:11])([H:18])[H:19])([H:16])[H:17])[H:15])([H:13])[H:14]"
C        2.52531452       0.92879384      -0.40833506
C        1.60371174       0.31855133       0.60764606
O        1.21459114      -0.91410901       0.65420528
C       -0.63915549      -1.28730569       1.19775350
C       -1.65339724      -0.50019996       0.63951158
C       -2.07232899      -0.60343619      -0.78813314
C       -1.14010333       0.56553262      -0.92386004
H        2.92323960       1.89424614      -0.08534636
H        3.37456650       0.28385178      -0.63853962
H        1.97818967       1.12580428      -1.33110299
H        0.29015740       0.86322293       0.03164703
H        1.93460437       0.61458225       1.62528669
H       -0.54295443      -2.29454551       0.79374117
H       -0.60385930      -1.27874790       2.28403970
H       -2.17672334       0.20559674       1.27639853
H       -1.74091571      -1.53008936      -1.25201446
H       -3.12543961      -0.40989218      -0.97246219
H       -0.52201062       0.48239500      -1.81588907
H       -1.62748688       1.53574890      -0.89454660
19
Frame=10 idx=011139 GeodesicLength=1.4565145555331203 rxn_smarts="[C:1]([C:2]([O:3][C:4]([C:5]1([H:15])[C:6]([H:16])([H:17])[C:7]1([H:18])[H:19])([H:13])[H:14])([H:11])[H:12])([H:8])([H:9])[H:10]>>[C:1]([C:2](=[O:3])[H:12])([H:8])([H:9])[H:10].[C:4](=[C:5]([C:6]([C:7]([H:11])([H:18])[H:19])([H:16])[H:17])[H:15])([H:13])[H:14]"
C        2.54838433       0.95781138      -0.38843086
C        1.63857622       0.29340063       0.60212337
O        1.20635321      -0.92547876       0.58674019
C       -0.64878108      -1.25314176       1.21160217
C       -1.67157365      -0.48693925       0.63428864
C       -2.08734279      -0.63308321      -0.78998435
C       -1.16407016       0.54446276      -0.94427015
H        3.01547420       1.86079162       0.01309355
H        3.34901745       0.29803444      -0.72555691
H        1.97093283       1.28534130      -1.25357925
H        0.29892555       0.88751769       0.02436020
H        2.02171014       0.49540729       1.62569311
H       -0.56068085      -2.27530311       0.84365640
H       -0.61388965      -1.20998569       2.29788616
H       -2.19908848       0.23021777       1.25495425
H       -1.74378541      -1.56883761      -1.22582192
H       -3.14136079      -0.45295198      -0.98171777
H       -0.55348312       0.44447123      -1.84010316
H       -1.66531796       1.50826527      -0.94493367
19
Frame=11 idx=011139 GeodesicLength=1.5910243312527084 rxn_smarts="[C:1]([C:2]([O:3][C:4]([C:5]1([H:15])[C:6]([H:16])([H:17])[C:7]1([H:18])[H:19])([H:13])[H:14])([H:11])[H:12])([H:8])([H:9])[H:10]>>[C:1]([C:2](=[O:3])[H:12])([H:8])([H:9])[H:10].[C:4](=[C:5]([C:6]([C:7]([H:11])([H:18])[H:19])([H:16])[H:17])[H:15])([H:13])[H:14]"
C        2.57103912       0.98539327      -0.36647710
C        1.67405638       0.26850843       0.59718994
O        1.19677240      -0.93119408       0.52356240
C       -0.65740166      -1.21640879       1.22420970
C       -1.68991964      -0.47349994       0.62822235
C       -2.10225833      -0.66309907      -0.79137508
C       -1.18947029       0.52366013      -0.96514861
H        3.10747254       1.81527401       0.10076299
H        3.31701885       0.32523049      -0.81086776
H        1.96965956       1.43585907      -1.15652708
H        0.30747873       0.91416239       0.01698805
H        2.11128189       0.37293616       1.61498003
H       -0.57274258      -2.25101617       0.89053904
H       -0.62668859      -1.14206876       2.30977402
H       -2.22223139       0.25431258       1.23231369
H       -1.74564117      -1.60672095      -1.19873211
H       -3.15729916      -0.49775976      -0.98987677
H       -0.58575552       0.40698289      -1.86399447
H       -1.70537114       1.47944808      -0.99554325
19
Frame=12 idx=011139 GeodesicLength=1.725495273581873 rxn_smarts="[C:1]([C:2]([O:3][C:4]([C:5]1([H:15])[C:6]([H:16])([H:17])[C:7]1([H:18])[H:19])([H:13])[H:14])([H:11])[H:12])([H:8])([H:9])[H:10]>>[C:1]([C:2](=[O:3])[H:12])([H:8])([H:9])[H:10].[C:4](=[C:5]([C:6]([C:7]([H:11])([H:18])[H:19])([H:16])[H:17])[H:15])([H:13])[H:14]"
C        2.59378606       1.01224051      -0.34165233
C        1.71032862       0.24325794       0.59235918
O        1.18636782      -0.93199424       0.46349075
C       -0.66504640      -1.17693315       1.23552562
C       -1.70822480      -0.45945025       0.62145976
C       -2.11761320      -0.69354888      -0.79179486
C       -1.21641837       0.50246151      -0.98706520
H        3.19854227       1.75983339       0.17812129
H        3.27971710       0.36683979      -0.89170945
H        1.97573069       1.57640615      -1.04023068
H        0.31624057       0.94286462       0.00814964
H        2.20202881       0.24671419       1.59183064
H       -0.57993854      -2.22194117       0.93451694
H       -0.64199301      -1.07469657       2.31989041
H       -2.24538825       0.27878038       1.20853735
H       -1.74763737      -1.64408887      -1.17000695
H       -3.17378836      -0.54399087      -0.99592411
H       -0.61932522       0.36846137      -1.88829174
H       -1.74736843       1.44878416      -1.04720625
19
Frame=13 idx=011139 GeodesicLength=1.8601132270150185 rxn_smarts="[C:1]([C:2]([O:3][C:4]([C:5]1([H:15])[C:6]([H:16])([H:17])[C:7]1([H:18])[H:19])([H:13])[H:14])([H:11])[H:12])([H:8])([H:9])[H:10]>>[C:1]([C:2](=[O:3])[H:12])([H:8])([H:9])[H:10].[C:4](=[C:5]([C:6]([C:7]([H:11])([H:18])[H:19])([H:16])[H:17])[H:15])([H:13])[H:14]"
C        2.61679716       1.03883636      -0.31306645
C        1.74761621       0.21711983       0.58742278
O        1.17556517      -0.92833697       0.40589739
C       -0.67175736      -1.13437586       1.24554529
C       -1.72632041      -0.44436514       0.61399031
C       -2.13367998      -0.72455520      -0.79090079
C       -1.24483059       0.48018112      -1.01056622
H        3.28848353       1.69594502       0.24536697
H        3.23707746       0.42411229      -0.96636224
H        1.98943051       1.70614843      -0.90375922
H        0.32559367       0.97352801      -0.00318579
H        2.29351261       0.11638828       1.55459062
H       -0.58284504      -2.18806326       0.97585294
H       -0.65969645      -1.00739267       2.32840159
H       -2.26806090       0.30445034       1.18337340
H       -1.75045060      -1.68128907      -1.13898697
H       -3.19109086      -0.59146378      -0.99925803
H       -0.65441048       0.32746566      -1.91358629
H       -1.79093364       1.41566659      -1.10076928
19
Frame=14 idx=011139 GeodesicLength=1.995038907086035 rxn_smarts="[C:1]([C:2]([O:3][C:4]([C:5]1([H:15])[C:6]([H:16])([H:17])[C:7]1([H:18])[H:19])([H:13])[H:14])([H:11])[H:12])([H:8])([H:9])[H:10]>>[C:1]([C:2](=[O:3])[H:12])([H:8])([H:9])[H:10].[C:4](=[C:5]([C:6]([C:7]([H:11])([H:18])[H:19])([H:16])[H:17])[H:15])([H:13])[H:14]"
C        2.63935233       1.06542503      -0.28016257
C        1.78644703       0.18990741       0.58333987
O        1.16473017      -0.92022891       0.35225681
C       -0.67813484      -1.08823174       1.25465397
C       -1.74437653      -0.42799706       0.60549287
C       -2.14989545      -0.75629378      -0.78894805
C       -1.27388281       0.45630545      -1.03590085
H        3.37843015       1.62409455       0.29990667
H        3.18526580       0.49826215      -1.03484534
H        2.00940101       1.82389082      -0.74408547
H        0.33574734       1.00636798      -0.01620580
H        2.38807661      -0.01829027       1.50051116
H       -0.58226789      -2.14911410       1.01525929
H       -0.68108572      -0.93965352       2.33581811
H       -2.29076115       0.33170185       1.15591395
H       -1.75339124      -1.71851832      -1.10548928
H       -3.20849283      -0.64028128      -1.00075755
H       -0.69011595       0.28308684      -1.93993150
H       -1.83504605       1.37956690      -1.15682629
19
Frame=15 idx=011139 GeodesicLength=2.1294353091002045 rxn_smarts="[C:1]([C:2]([O:3][C:4]([C:5]1([H:15])[C:6]([H:16])([H:17])[C:7]1([H:18])[H:19])([H:13])[H:14])([H:11])[H:12])([H:8])([H:9])[H:10]>>[C:1]([C:2](=[O:3])[H:12])([H:8])([H:9])[H:10].[C:4](=[C:5]([C:6]([C:7]([H:11])([H:18])[H:19])([H:16])[H:17])[H:15])([H:13])[H:14]"
C        2.66402591       1.09220010      -0.24017100
C        1.82643448       0.15799532       0.57394725
O        1.15435902      -0.91048103       0.29344414
C       -0.68136874      -1.03837308       1.26066676
C       -1.76051478      -0.40892586       0.59688444
C       -2.16949273      -0.78802135      -0.78304744
C       -1.30621015       0.42995586      -1.06417115
H        3.45787855       1.55363466       0.35299285
H        3.14313397       0.59156356      -1.08216194
H        2.03843174       1.92075348      -0.57040709
H        0.34853815       1.04016213      -0.03937580
H        2.47477087      -0.15640393       1.42841434
H       -0.57720759      -2.10520965       1.05082622
H       -0.69904190      -0.87026261       2.33986511
H       -2.30880707       0.36308129       1.12818489
H       -1.76181981      -1.75569890      -1.06696408
H       -3.22986834      -0.68855936      -0.99370746
H       -0.73130161       0.23273977      -1.96932138
H       -1.88193999       1.33984960      -1.21589865
19
Frame=16 idx=011139 GeodesicLength=2.264213058454312 rxn_smarts="[C:1]([C:2]([O:3][C:4]([C:5]1([H:15])[C:6]([H:16])([H:17])[C:7]1([H:18])[H:19])([H:13])[H:14])([H:11])[H:12])([H:8])([H:9])[H:10]>>[C:1]([C:2](=[O:3])[H:12])([H:8])([H:9])[H:10].[C:4](=[C:5]([C:6]([C:7]([H:11])([H:18])[H:19])([H:16])[H:17])[H:15])([H:13])[H:14]"
C        2.68617635       1.11871248      -0.19378768
C        1.86885552       0.12374400       0.56613847
O        1.14448877      -0.89663471       0.24076129
C       -0.68493616      -0.98329483       1.26623925
C       -1.77649578      -0.38753478       0.58642294
C       -2.18793452      -0.82060779      -0.77617285
C       -1.33752542       0.40086151      -1.09489438
H        3.53878472       1.47610673       0.38928391
H        3.08397225       0.70380443      -1.12025613
H        2.07038683       2.00030925      -0.36730332
H        0.36292892       1.07684301      -0.06357213
H        2.56793584      -0.29827431       1.33110830
H       -0.56992276      -2.05498823       1.08622024
H       -0.72185319      -0.79799923       2.34321019
H       -2.32732087       0.39739662       1.09593247
H       -1.76880748      -1.79301909      -1.02487478
H       -3.24977967      -0.73819946      -0.98593224
H       -0.77149937       0.17692082      -1.99974706
H       -1.92745399       1.29585358      -1.27877650
