12
Frame=0 idx=001496 GeodesicLength=0.0 rxn_smarts="[O:1]=[C:2]1[C:3]([H:7])([H:8])[C:4]([H:9])=[C:5]([H:10])[C:6]1([H:11])[H:12]>>[O:1]=[C:2]1[C:3]([H:7])([H:8])[C@:4]1([C:5](=[C:6]([H:11])[H:12])[H:10])[H:9]"
O       -1.14673295      -1.17035221       1.51395367
C       -0.52547347      -0.90867488       0.56128460
C        0.45463466      -1.17423723      -0.47708510
C        1.07261941      -0.03009866       0.26261597
C        0.25861777       1.11576707       0.24364402
C       -0.90784190       1.15062638      -0.48539006
H        0.17160196      -1.07489316      -1.52618605
H        0.92612390      -2.13499301      -0.27727798
H        1.95395708      -0.15025564       0.87049516
H        0.44463822       1.88861735       0.98403151
H       -1.64285706       1.91907032      -0.28706170
H       -1.05928757       0.56942362      -1.38302399
12
Frame=1 idx=001496 GeodesicLength=0.0438593919502095 rxn_smarts="[O:1]=[C:2]1[C:3]([H:7])([H:8])[C:4]([H:9])=[C:5]([H:10])[C:6]1([H:11])[H:12]>>[O:1]=[C:2]1[C:3]([H:7])([H:8])[C@:4]1([C:5](=[C:6]([H:11])[H:12])[H:10])[H:9]"
O       -1.16661345      -1.19127204       1.49560690
C       -0.53261024      -0.90432237       0.55679857
C        0.45794222      -1.17980869      -0.47191525
C        1.06896953      -0.02969670       0.26677724
C        0.26788528       1.12447796       0.23455168
C       -0.91350764       1.14620165      -0.47420957
H        0.17689796      -1.08800808      -1.52189623
H        0.93203006      -2.13805366      -0.26648970
H        1.95371063      -0.14552518       0.87112936
H        0.46697384       1.90789245       0.96011323
H       -1.65249344       1.90728814      -0.26097795
H       -1.05918474       0.59082651      -1.38948829
12
Frame=2 idx=001496 GeodesicLength=0.08759686694833321 rxn_smarts="[O:1]=[C:2]1[C:3]([H:7])([H:8])[C:4]([H:9])=[C:5]([H:10])[C:6]1([H:11])[H:12]>>[O:1]=[C:2]1[C:3]([H:7])([H:8])[C@:4]1([C:5](=[C:6]([H:11])[H:12])[H:10])[H:9]"
O       -1.18707231      -1.21272019       1.47578401
C       -0.53959965      -0.90021340       0.55247452
C        0.46138977      -1.18539729      -0.46643174
C        1.06517762      -0.02915304       0.27118287
C        0.27710806       1.13306217       0.22505439
C       -0.91884676       1.14184318      -0.46299847
H        0.18241226      -1.10128926      -1.51727062
H        0.93830932      -2.14096668      -0.25537189
H        1.95350250      -0.14042163       0.87172194
H        0.48914765       1.92692729       0.93523609
H       -1.66101954       1.89592348      -0.23472219
H       -1.06050893       0.61240537      -1.39465891
12
Frame=3 idx=001496 GeodesicLength=0.13116800990808275 rxn_smarts="[O:1]=[C:2]1[C:3]([H:7])([H:8])[C:4]([H:9])=[C:5]([H:10])[C:6]1([H:11])[H:12]>>[O:1]=[C:2]1[C:3]([H:7])([H:8])[C@:4]1([C:5](=[C:6]([H:11])[H:12])[H:10])[H:9]"
O       -1.20803336      -1.23461695       1.45443989
C       -0.54645317      -0.89633774       0.54831746
C        0.46497651      -1.19100451      -0.46061811
C        1.06124440      -0.02846081       0.27582180
C        0.28629795       1.14150952       0.21511315
C       -0.92387191       1.13756805      -0.45173293
H        0.18817380      -1.11475475      -1.51229666
H        0.94494997      -2.14373207      -0.24389302
H        1.95332870      -0.13495490       0.87224949
H        0.51108823       1.94561220       0.90947086
H       -1.66842737       1.88503356      -0.20829140
H       -1.06327375       0.63413842      -1.39858052
12
Frame=4 idx=001496 GeodesicLength=0.17454562405424906 rxn_smarts="[O:1]=[C:2]1[C:3]([H:7])([H:8])[C:4]([H:9])=[C:5]([H:10])[C:6]1([H:11])[H:12]>>[O:1]=[C:2]1[C:3]([H:7])([H:8])[C@:4]1([C:5](=[C:6]([H:11])[H:12])[H:10])[H:9]"
O       -1.22938241      -1.25686857       1.43155669
C       -0.55319786      -0.89268097       0.54432800
C        0.46869168      -1.19663995      -0.45446703
C        1.05716976      -0.02760883       0.28068010
C        0.29546443       1.14982536       0.20468543
C       -0.92858315       1.13338779      -0.44040287
H        0.19419199      -1.12843671      -1.50697917
H        0.95192848      -2.14636702      -0.23203041
H        1.95318495      -0.12913306       0.87269149
H        0.53269783       1.96385294       0.88292580
H       -1.67470928       1.87464845      -0.18168708
H       -1.06745642       0.65602057      -1.40130097
12
Frame=5 idx=001496 GeodesicLength=0.21770942526801718 rxn_smarts="[O:1]=[C:2]1[C:3]([H:7])([H:8])[C:4]([H:9])=[C:5]([H:10])[C:6]1([H:11])[H:12]>>[O:1]=[C:2]1[C:3]([H:7])([H:8])[C@:4]1([C:5](=[C:6]([H:11])[H:12])[H:10])[H:9]"
O       -1.25111036      -1.27932849       1.40703631
C       -0.55980388      -0.88926060       0.54053370
C        0.47254483      -1.20230464      -0.44795466
C        1.05297020      -0.02659152       0.28572112
C        0.30467097       1.15799777       0.19372318
C       -0.93299236       1.12932343      -0.42900457
H        0.20051091      -1.14235112      -1.50127470
H        0.95923085      -2.14885478      -0.21974396
H        1.95308411      -0.12294960       0.87298072
H        0.55392848       1.98151748       0.85577413
H       -1.67990550       1.86485615      -0.15487351
H       -1.07312824       0.67794593      -1.40291776
12
Frame=6 idx=001496 GeodesicLength=0.26066332115030005 rxn_smarts="[O:1]=[C:2]1[C:3]([H:7])([H:8])[C:4]([H:9])=[C:5]([H:10])[C:6]1([H:11])[H:12]>>[O:1]=[C:2]1[C:3]([H:7])([H:8])[C@:4]1([C:5](=[C:6]([H:11])[H:12])[H:10])[H:9]"
O       -1.27279593      -1.30203582       1.38129786
C       -0.56643266      -0.88602059       0.53680973
C        0.47646037      -1.20800043      -0.44112813
C        1.04857080      -0.02543040       0.29085875
C        0.31376300       1.16600248       0.18224511
C       -0.93713095       1.12532173      -0.41762831
H        0.20707112      -1.15656446      -1.49525771
H        0.96676183      -2.15120638      -0.20703445
H        1.95291221      -0.11643581       0.87316117
H        0.57467673       1.99858738       0.82807731
H       -1.68399391       1.85541688      -0.12803363
H       -1.07986259       0.70036543      -1.40336770
12
Frame=7 idx=001496 GeodesicLength=0.3034328564364476 rxn_smarts="[O:1]=[C:2]1[C:3]([H:7])([H:8])[C:4]([H:9])=[C:5]([H:10])[C:6]1([H:11])[H:12]>>[O:1]=[C:2]1[C:3]([H:7])([H:8])[C@:4]1([C:5](=[C:6]([H:11])[H:12])[H:10])[H:9]"
O       -1.29473272      -1.32477177       1.35393222
C       -0.57296088      -0.88301231       0.53321470
C        0.48051657      -1.21373821      -0.43393931
C        1.04404164      -0.02410086       0.29614758
C        0.32289241       1.17383840       0.17016110
C       -0.94097489       1.12146341      -0.40617281
H        0.21399548      -1.17104463      -1.48885802
H        0.97458314      -2.15342572      -0.19384930
H        1.95272971      -0.10959764       0.87317442
H        0.59498103       2.01500011       0.79988319
H       -1.68703718       1.84654258      -0.10090236
H       -1.08803432       0.72284664      -1.40279142
12
Frame=8 idx=001496 GeodesicLength=0.34590622606019966 rxn_smarts="[O:1]=[C:2]1[C:3]([H:7])([H:8])[C:4]([H:9])=[C:5]([H:10])[C:6]1([H:11])[H:12]>>[O:1]=[C:2]1[C:3]([H:7])([H:8])[C@:4]1([C:5](=[C:6]([H:11])[H:12])[H:10])[H:9]"
O       -1.31690383      -1.34750273       1.32462358
C       -0.57944900      -0.88025780       0.52977816
C        0.48472232      -1.21951914      -0.42634759
C        1.03933498      -0.02258405       0.30165105
C        0.33201261       1.18144283       0.15743148
C       -0.94455127       1.11774604      -0.39459334
H        0.22132765      -1.18580350      -1.48205956
H        0.98272138      -2.15551027      -0.18012016
H        1.95251172      -0.10242796       0.87309825
H        0.61496378       2.03080172       0.77091825
H       -1.68900551       1.83815201      -0.07332612
H       -1.09768484       0.74546285      -1.40105401
12
Frame=9 idx=001496 GeodesicLength=0.38806677918126725 rxn_smarts="[O:1]=[C:2]1[C:3]([H:7])([H:8])[C:4]([H:9])=[C:5]([H:10])[C:6]1([H:11])[H:12]>>[O:1]=[C:2]1[C:3]([H:7])([H:8])[C@:4]1([C:5](=[C:6]([H:11])[H:12])[H:10])[H:9]"
O       -1.33888424      -1.37019432       1.29365627
C       -0.58601208      -0.87773264       0.52643876
C        0.48899687      -1.22535644      -0.41838316
C        1.03441824      -0.02092281       0.30727361
C        0.34105849       1.18881025       0.14405716
C       -0.94783077       1.11411553      -0.38298566
H        0.22897869      -1.20090910      -1.47488963
H        0.99106833      -2.15745783      -0.16584915
H        1.95217122      -0.09492175       0.87294029
H        0.63443867       2.04595543       0.74141386
H       -1.68985987       1.83016199      -0.04542686
H       -1.10854356       0.76845167      -1.39824548
12
Frame=10 idx=001496 GeodesicLength=0.43011212033069424 rxn_smarts="[O:1]=[C:2]1[C:3]([H:7])([H:8])[C:4]([H:9])=[C:5]([H:10])[C:6]1([H:11])[H:12]>>[O:1]=[C:2]1[C:3]([H:7])([H:8])[C@:4]1([C:5](=[C:6]([H:11])[H:12])[H:10])[H:9]"
O       -1.36077917      -1.39264251       1.26135706
C       -0.59255984      -0.87545137       0.52301051
C        0.49340083      -1.23122498      -0.41009118
C        1.02930280      -0.01909320       0.31295700
C        0.35005399       1.19591766       0.13005021
C       -0.95089825       1.11064443      -0.37130533
H        0.23711535      -1.21628359      -1.46736028
H        0.99960430      -2.15926041      -0.15105570
H        1.95161849      -0.08718874       0.87262739
H        0.65348505       2.06033512       0.71150721
H       -1.68978723       1.82253738      -0.01722670
H       -1.12055634       0.79171019      -1.39447018
12
Frame=11 idx=001496 GeodesicLength=0.4718920061337745 rxn_smarts="[O:1]=[C:2]1[C:3]([H:7])([H:8])[C:4]([H:9])=[C:5]([H:10])[C:6]1([H:11])[H:12]>>[O:1]=[C:2]1[C:3]([H:7])([H:8])[C@:4]1([C:5](=[C:6]([H:11])[H:12])[H:10])[H:9]"
O       -1.38237488      -1.41481349       1.22747144
C       -0.59921678      -0.87344549       0.51956494
C        0.49790441      -1.23716300      -0.40145272
C        1.02395561      -0.01709450       0.31871810
C        0.35894619       1.20271573       0.11536210
C       -0.95372693       1.10728871      -0.35959274
H        0.24568465      -1.23201234      -1.45948717
H        1.00834472      -2.16094134      -0.13569196
H        1.95086710      -0.07917462       0.87228479
H        0.67203642       2.07398041       0.68109557
H       -1.68865174       1.81530336       0.01136449
H       -1.13376877       0.81535658      -1.38963683
12
Frame=12 idx=001496 GeodesicLength=0.5135190304387622 rxn_smarts="[O:1]=[C:2]1[C:3]([H:7])([H:8])[C:4]([H:9])=[C:5]([H:10])[C:6]1([H:11])[H:12]>>[O:1]=[C:2]1[C:3]([H:7])([H:8])[C@:4]1([C:5](=[C:6]([H:11])[H:12])[H:10])[H:9]"
O       -1.40372732      -1.43674201       1.19201627
C       -0.60596956      -0.87173433       0.51599122
C        0.50254173      -1.24315774      -0.39246887
C        1.01838783      -0.01493313       0.32458783
C        0.36770672       1.20915526       0.09995996
C       -0.95631340       1.10407227      -0.34779132
H        0.25480524      -1.24804930      -1.45126235
H        1.01727222      -2.16248579      -0.11973009
H        1.94979683      -0.07091367       0.87198459
H        0.69015846       2.08692244       0.64994725
H       -1.68643707       1.80843421       0.04045787
H       -1.14822167       0.83943182      -1.38369236
12
Frame=13 idx=001496 GeodesicLength=0.5548651672779574 rxn_smarts="[O:1]=[C:2]1[C:3]([H:7])([H:8])[C:4]([H:9])=[C:5]([H:10])[C:6]1([H:11])[H:12]>>[O:1]=[C:2]1[C:3]([H:7])([H:8])[C@:4]1([C:5](=[C:6]([H:11])[H:12])[H:10])[H:9]"
O       -1.42462147      -1.45823157       1.15481318
C       -0.61289287      -0.87036750       0.51223767
C        0.50729727      -1.24923579      -0.38313015
C        1.01247003      -0.01263337       0.33053016
C        0.37629773       1.21518628       0.08387598
C       -0.95875548       1.10095804      -0.33589886
H        0.26452343      -1.26443875      -1.44266626
H        1.02636856      -2.16389794      -0.10310872
H        1.94834156      -0.06238879       0.87180326
H        0.70802593       2.09922033       0.61796774
H       -1.68319113       1.80181464       0.07017533
H       -1.16386356       0.86401443      -1.37659932
12
Frame=14 idx=001496 GeodesicLength=0.5961039655910297 rxn_smarts="[O:1]=[C:2]1[C:3]([H:7])([H:8])[C:4]([H:9])=[C:5]([H:10])[C:6]1([H:11])[H:12]>>[O:1]=[C:2]1[C:3]([H:7])([H:8])[C@:4]1([C:5](=[C:6]([H:11])[H:12])[H:10])[H:9]"
O       -1.44518693      -1.47939997       1.11594606
C       -0.61997888      -0.86935781       0.50819282
C        0.51222041      -1.25537650      -0.37344797
C        1.00626796      -0.01016705       0.33656500
C        0.38467339       1.22075243       0.06703235
C       -0.96103158       1.09799863      -0.32387602
H        0.27495002      -1.28113166      -1.43373023
H        1.03564763      -2.16515916      -0.08578198
H        1.94641622      -0.05362438       0.87186167
H        0.72561027       2.11080174       0.58488766
H       -1.67881978       1.79545850       0.10059630
H       -1.18076874       0.88920521      -1.36824566
12
Frame=15 idx=001496 GeodesicLength=0.6372010286253572 rxn_smarts="[O:1]=[C:2]1[C:3]([H:7])([H:8])[C:4]([H:9])=[C:5]([H:10])[C:6]1([H:11])[H:12]>>[O:1]=[C:2]1[C:3]([H:7])([H:8])[C@:4]1([C:5](=[C:6]([H:11])[H:12])[H:10])[H:9]"
O       -1.46514218      -1.50014336       1.07562007
C       -0.62728186      -0.86867481       0.50376195
C        0.51726997      -1.26159281      -0.36345797
C        0.99973391      -0.00754613       0.34259803
C        0.39279739       1.22583448       0.04946774
C       -0.96314590       1.09517360      -0.31177076
H        0.28607966      -1.29817709      -1.42446759
H        1.04501994      -2.16627216      -0.06777415
H        1.94393068      -0.04462766       0.87214798
H        0.74282493       2.12163753       0.55088928
H       -1.67333378       1.78933625       0.13164538
H       -1.19875276       0.91505216      -1.35865996
12
Frame=16 idx=001496 GeodesicLength=0.6781782881752481 rxn_smarts="[O:1]=[C:2]1[C:3]([H:7])([H:8])[C:4]([H:9])=[C:5]([H:10])[C:6]1([H:11])[H:12]>>[O:1]=[C:2]1[C:3]([H:7])([H:8])[C@:4]1([C:5](=[C:6]([H:11])[H:12])[H:10])[H:9]"
O       -1.48446909      -1.52041411       1.03373041
C       -0.63481929      -0.86836811       0.49886411
C        0.52246142      -1.26789870      -0.35314634
C        0.99284942      -0.00477882       0.34860545
C        0.40062858       1.23038643       0.03115628
C       -0.96515476       1.09248232      -0.29956309
H        0.29798195      -1.31558021      -1.41486365
H        1.05448648      -2.16723541      -0.04899662
H        1.94085223      -0.03537902       0.87274762
H        0.75974517       2.13172014       0.51580135
H       -1.66669404       1.78339116       0.16341605
H       -1.21786806       0.94167431      -1.34775156
