12
Frame=0 idx=001068 GeodesicLength=0.0 rxn_smarts="[N:1]([c:2]1[c:3]([H:9])[c:4]([H:10])[c:5]([H:11])[n:6]1[H:12])([H:7])[H:8]>>[N:1]([N+:6]1([H:12])[C-:2]=[C:3]([H:9])[C:4]([H:10])=[C:5]1[H:11])([H:7])[H:8]"
N        1.66160932      -0.76565815      -0.32940990
C        0.63571304       0.60099824       0.93474337
C       -0.25119919       1.36658904       0.16901527
C       -1.27822077       0.57291663      -0.36023351
C       -1.03828953      -0.75248294      -0.04377820
N        0.13570597      -0.75971713       0.64226202
H        1.28953468      -0.33182345      -1.17360156
H        2.33832249      -0.10543307       0.04733787
H       -0.19298019       2.44184059       0.09572142
H       -2.14581449       0.92007630      -0.90562524
H       -1.56674684      -1.65524721      -0.30113982
H        0.41236551      -1.53205880       1.22470827
12
Frame=1 idx=001068 GeodesicLength=0.04664254401455427 rxn_smarts="[N:1]([c:2]1[c:3]([H:9])[c:4]([H:10])[c:5]([H:11])[n:6]1[H:12])([H:7])[H:8]>>[N:1]([N+:6]1([H:12])[C-:2]=[C:3]([H:9])[C:4]([H:10])=[C:5]1[H:11])([H:7])[H:8]"
N        1.66975937      -0.75826227      -0.31824682
C        0.63744297       0.59728011       0.91690875
C       -0.25624800       1.36611621       0.16728228
C       -1.28935637       0.57283742      -0.35727123
C       -1.04294875      -0.75189775      -0.05261597
N        0.13427149      -0.76138045       0.63340148
H        1.31860035      -0.33418939      -1.17558260
H        2.35817370      -0.11178759       0.05968433
H       -0.18699603       2.43963775       0.07978187
H       -2.17443648       0.92437365      -0.87066729
H       -1.57013615      -1.65516947      -0.31085587
H        0.40187390      -1.52755822       1.22818107
12
Frame=2 idx=001068 GeodesicLength=0.09320655906322364 rxn_smarts="[N:1]([c:2]1[c:3]([H:9])[c:4]([H:10])[c:5]([H:11])[n:6]1[H:12])([H:7])[H:8]>>[N:1]([N+:6]1([H:12])[C-:2]=[C:3]([H:9])[C:4]([H:10])=[C:5]1[H:11])([H:7])[H:8]"
N        1.67774853      -0.75041440      -0.30744375
C        0.63890445       0.59352329       0.89912312
C       -0.26158400       1.36568291       0.16607787
C       -1.30113014       0.57287149      -0.35316876
C       -1.04775036      -0.75123999      -0.06146499
N        0.13292741      -0.76311118       0.62416966
H        1.34799278      -0.33611967      -1.17730994
H        2.37756168      -0.11842318       0.07263634
H       -0.18043712       2.43691719       0.06228566
H       -2.20211335       0.92819672      -0.83519127
H       -1.57357656      -1.65498803      -0.32086328
H        0.39145669      -1.52289514       1.23114933
12
Frame=3 idx=001068 GeodesicLength=0.1396790173483114 rxn_smarts="[N:1]([c:2]1[c:3]([H:9])[c:4]([H:10])[c:5]([H:11])[n:6]1[H:12])([H:7])[H:8]>>[N:1]([N+:6]1([H:12])[C-:2]=[C:3]([H:9])[C:4]([H:10])=[C:5]1[H:11])([H:7])[H:8]"
N        1.68556924      -0.74223315      -0.29705655
C        0.64022034       0.58978642       0.88125892
C       -0.26708045       1.36532736       0.16527048
C       -1.31347499       0.57303153      -0.34786912
C       -1.05270238      -0.75045674      -0.07021149
N        0.13171678      -0.76486276       0.61459535
H        1.37766925      -0.33779313      -1.17884655
H        2.39649329      -0.12544993       0.08602777
H       -0.17383244       2.43374328       0.04389234
H       -2.22861832       0.93153985      -0.79977162
H       -1.57712016      -1.65464518      -0.33097797
H        0.38115984      -1.51798755       1.23368845
12
Frame=4 idx=001068 GeodesicLength=0.1860550941924036 rxn_smarts="[N:1]([c:2]1[c:3]([H:9])[c:4]([H:10])[c:5]([H:11])[n:6]1[H:12])([H:7])[H:8]>>[N:1]([N+:6]1([H:12])[C-:2]=[C:3]([H:9])[C:4]([H:10])=[C:5]1[H:11])([H:7])[H:8]"
N        1.69326037      -0.73382886      -0.28707387
C        0.64146172       0.58611842       0.86318432
C       -0.27262112       1.36506352       0.16466882
C       -1.32627336       0.57330243      -0.34146562
C       -1.05778641      -0.74951316      -0.07884031
N        0.13066329      -0.76659467       0.60467811
H        1.40768333      -0.33939703      -1.18020705
H        2.41498349      -0.13295188       0.09978998
H       -0.16758232       2.43019226       0.02506837
H       -2.25398644       0.93445745      -0.76454904
H       -1.58078138      -1.65410266      -0.34111491
H        0.37097883      -1.51274583       1.23586120
12
Frame=5 idx=001068 GeodesicLength=0.23229784793106587 rxn_smarts="[N:1]([c:2]1[c:3]([H:9])[c:4]([H:10])[c:5]([H:11])[n:6]1[H:12])([H:7])[H:8]>>[N:1]([N+:6]1([H:12])[C-:2]=[C:3]([H:9])[C:4]([H:10])=[C:5]1[H:11])([H:7])[H:8]"
N        1.70081563      -0.72553764      -0.27762769
C        0.64292272       0.58266816       0.84449423
C       -0.27791277       1.36493951       0.16377929
C       -1.33932486       0.57368770      -0.33411374
C       -1.06300181      -0.74833981      -0.08711244
N        0.12986173      -0.76818285       0.59449740
H        1.43794975      -0.34153728      -1.18159935
H        2.43311140      -0.14123486       0.11350578
H       -0.16302274       2.42683213       0.00782852
H       -2.27773079       0.93690003      -0.73084214
H       -1.58468319      -1.65331193      -0.35073958
H        0.36101493      -1.50688316       1.23792974
12
Frame=6 idx=001068 GeodesicLength=0.2784160983134806 rxn_smarts="[N:1]([c:2]1[c:3]([H:9])[c:4]([H:10])[c:5]([H:11])[n:6]1[H:12])([H:7])[H:8]>>[N:1]([N+:6]1([H:12])[C-:2]=[C:3]([H:9])[C:4]([H:10])=[C:5]1[H:11])([H:7])[H:8]"
N        1.70826661      -0.71723910      -0.26870024
C        0.64450322       0.57935173       0.82532246
C       -0.28308208       1.36490266       0.16284293
C       -1.35262656       0.57412399      -0.32574401
C       -1.06836519      -0.74698697      -0.09503762
N        0.12929734      -0.76970429       0.58403518
H        1.46848593      -0.34401541      -1.18294665
H        2.45081597      -0.15014574       0.12724602
H       -0.15970232       2.42355467      -0.00838485
H       -2.30004915       0.93899307      -0.69853365
H       -1.58883822      -1.65231426      -0.35988539
H        0.35129446      -1.50052035       1.23978583
12
Frame=7 idx=001068 GeodesicLength=0.3243583570497537 rxn_smarts="[N:1]([c:2]1[c:3]([H:9])[c:4]([H:10])[c:5]([H:11])[n:6]1[H:12])([H:7])[H:8]>>[N:1]([N+:6]1([H:12])[C-:2]=[C:3]([H:9])[C:4]([H:10])=[C:5]1[H:11])([H:7])[H:8]"
N        1.71553418      -0.70915296      -0.26052684
C        0.64644483       0.57624520       0.80539282
C       -0.28797544       1.36495157       0.16170622
C       -1.36600984       0.57458698      -0.31631734
C       -1.07390930      -0.74542210      -0.10220369
N        0.12906810      -0.77107906       0.57342060
H        1.49902702      -0.34730769      -1.18450322
H        2.46809806      -0.15988152       0.14047129
H       -0.15864983       2.42092145      -0.02163000
H       -2.32027541       0.94066831      -0.66958328
H       -1.59338365      -1.65108947      -0.36786040
H        0.34203128      -1.49344071       1.24163383
12
Frame=8 idx=001068 GeodesicLength=0.3701804819158151 rxn_smarts="[N:1]([c:2]1[c:3]([H:9])[c:4]([H:10])[c:5]([H:11])[n:6]1[H:12])([H:7])[H:8]>>[N:1]([N+:6]1([H:12])[C-:2]=[C:3]([H:9])[C:4]([H:10])=[C:5]1[H:11])([H:7])[H:8]"
N        1.72275757      -0.70105796      -0.25285886
C        0.64848370       0.57325522       0.78493849
C       -0.29277399       1.36505254       0.16055257
C       -1.37952314       0.57503416      -0.30594283
C       -1.07959738      -0.74372190      -0.10899438
N        0.12908113      -0.77241800       0.56253202
H        1.52987482      -0.35101323      -1.18599182
H        2.48492967      -0.17021056       0.15371361
H       -0.15872402       2.41853454      -0.03376545
H       -2.33940090       0.94211609      -0.64212846
H       -1.59817338      -1.64971441      -0.37532636
H        0.33306590      -1.48585648       1.24327146
12
Frame=9 idx=001068 GeodesicLength=0.4158986618916794 rxn_smarts="[N:1]([c:2]1[c:3]([H:9])[c:4]([H:10])[c:5]([H:11])[n:6]1[H:12])([H:7])[H:8]>>[N:1]([N+:6]1([H:12])[C-:2]=[C:3]([H:9])[C:4]([H:10])=[C:5]1[H:11])([H:7])[H:8]"
N        1.72995531      -0.69287940      -0.24564670
C        0.65054936       0.57036609       0.76400248
C       -0.29753274       1.36519719       0.15947305
C       -1.39318881       0.57545356      -0.29450016
C       -1.08540765      -0.74189219      -0.11548852
N        0.12931473      -0.77373790       0.55133779
H        1.56109175      -0.35503255      -1.18732463
H        2.50126450      -0.18111492       0.16712221
H       -0.15961400       2.41626664      -0.04532290
H       -2.35768659       0.94336331      -0.61577202
H       -1.60313103      -1.64818531      -0.38249782
H        0.32438518      -1.47780454       1.24461723
12
Frame=10 idx=001068 GeodesicLength=0.4614876359373392 rxn_smarts="[N:1]([c:2]1[c:3]([H:9])[c:4]([H:10])[c:5]([H:11])[n:6]1[H:12])([H:7])[H:8]>>[N:1]([N+:6]1([H:12])[C-:2]=[C:3]([H:9])[C:4]([H:10])=[C:5]1[H:11])([H:7])[H:8]"
N        1.73705653      -0.68463206      -0.23908742
C        0.65272486       0.56755038       0.74256741
C       -0.30227303       1.36535911       0.15869136
C       -1.40696982       0.57580298      -0.28176399
C       -1.09140967      -0.73994647      -0.12133955
N        0.12982157      -0.77505837       0.53993379
H        1.59242122      -0.35941018      -1.18865596
H        2.51705813      -0.19256556       0.18031267
H       -0.16163027       2.41427378      -0.05546185
H       -2.37458039       0.94444391      -0.59206485
H       -1.60840612      -1.64651661      -0.38884771
H        0.31618699      -1.46930091       1.24571609
12
Frame=11 idx=001068 GeodesicLength=0.5069661607357554 rxn_smarts="[N:1]([c:2]1[c:3]([H:9])[c:4]([H:10])[c:5]([H:11])[n:6]1[H:12])([H:7])[H:8]>>[N:1]([N+:6]1([H:12])[C-:2]=[C:3]([H:9])[C:4]([H:10])=[C:5]1[H:11])([H:7])[H:8]"
N        1.74406808      -0.67626749      -0.23317568
C        0.65497375       0.56480103       0.72065174
C       -0.30703436       1.36553083       0.15831744
C       -1.42089502       0.57606802      -0.26754411
C       -1.09760722      -0.73789040      -0.12651953
N        0.13059185      -0.77639156       0.52832890
H        1.62385430      -0.36410080      -1.18995928
H        2.53228349      -0.20455411       0.19331251
H       -0.16460593       2.41248697      -0.06442330
H       -2.39019871       0.94540284      -0.57103293
H       -1.61394067      -1.64470876      -0.39449511
H        0.30851045      -1.46037657       1.24653933
12
Frame=12 idx=001068 GeodesicLength=0.5523551135877702 rxn_smarts="[N:1]([c:2]1[c:3]([H:9])[c:4]([H:10])[c:5]([H:11])[n:6]1[H:12])([H:7])[H:8]>>[N:1]([N+:6]1([H:12])[C-:2]=[C:3]([H:9])[C:4]([H:10])=[C:5]1[H:11])([H:7])[H:8]"
N        1.75101857      -0.66772986      -0.22786873
C        0.65723055       0.56210344       0.69827406
C       -0.31184834       1.36569814       0.15841313
C       -1.43499352       0.57622463      -0.25169018
C       -1.10398875      -0.73572894      -0.13109631
N        0.13160241      -0.77775872       0.51648844
H        1.65545408      -0.36900229      -1.19116744
H        2.54690640      -0.21704238       0.20622014
H       -0.16833855       2.41078720      -0.07260805
H       -2.40467131       0.94629442      -0.55242346
H       -1.61971499      -1.64275873      -0.39955838
H        0.30134345      -1.45108691       1.24701679
12
Frame=13 idx=001068 GeodesicLength=0.5976735086089714 rxn_smarts="[N:1]([c:2]1[c:3]([H:9])[c:4]([H:10])[c:5]([H:11])[n:6]1[H:12])([H:7])[H:8]>>[N:1]([N+:6]1([H:12])[C-:2]=[C:3]([H:9])[C:4]([H:10])=[C:5]1[H:11])([H:7])[H:8]"
N        1.75794593      -0.65900018      -0.22309342
C        0.65943815       0.55947316       0.67538739
C       -0.31672080       1.36585577       0.15892284
C       -1.44925555       0.57625515      -0.23416575
C       -1.11053212      -0.73344770      -0.13516895
N        0.13282410      -0.77914988       0.50437344
H        1.68732100      -0.37412229      -1.19220024
H        2.56089585      -0.23003650       0.21916173
H       -0.17273744       2.40910454      -0.08033360
H       -2.41815847       0.94713579      -0.53574644
H       -1.62566208      -1.64064407      -0.40424584
H        0.29464143      -1.44142379       1.24710884
12
Frame=14 idx=001068 GeodesicLength=0.642951534843283 rxn_smarts="[N:1]([c:2]1[c:3]([H:9])[c:4]([H:10])[c:5]([H:11])[n:6]1[H:12])([H:7])[H:8]>>[N:1]([N+:6]1([H:12])[C-:2]=[C:3]([H:9])[C:4]([H:10])=[C:5]1[H:11])([H:7])[H:8]"
N        1.76498943      -0.65012180      -0.21856310
C        0.66149664       0.55697530       0.65179883
C       -0.32159090       1.36602028       0.15937971
C       -1.46351780       0.57614662      -0.21556566
C       -1.11713871      -0.73102008      -0.13920198
N        0.13418321      -0.78051198       0.49182896
H        1.71986545      -0.37962266      -1.19279046
H        2.57423231      -0.24356737       0.23259861
H       -0.17766978       2.40740127      -0.08826971
H       -2.43136911       0.94790706      -0.51884644
H       -1.63162480      -1.63834155      -0.40912540
H        0.28814405      -1.43126509       1.24675664
12
Frame=15 idx=001068 GeodesicLength=0.6882276838645435 rxn_smarts="[N:1]([c:2]1[c:3]([H:9])[c:4]([H:10])[c:5]([H:11])[n:6]1[H:12])([H:7])[H:8]>>[N:1]([N+:6]1([H:12])[C-:2]=[C:3]([H:9])[C:4]([H:10])=[C:5]1[H:11])([H:7])[H:8]"
N        1.77236323      -0.64120652      -0.21383789
C        0.66331292       0.55472402       0.62714312
C       -0.32633581       1.36623998       0.15894598
C       -1.47744568       0.57590613      -0.19713867
C       -1.12364184      -0.72840825      -0.14393886
N        0.13558914      -0.78173809       0.47861513
H        1.75373389      -0.38588649      -1.19251853
H        2.58689449      -0.25771901       0.24724619
H       -0.18304529       2.40574553      -0.09715762
H       -2.44548952       0.94851020      -0.49825254
H       -1.63737073      -1.63582782      -0.41500584
H        0.28143520      -1.42033968       1.24589955
12
Frame=16 idx=001068 GeodesicLength=0.7334569037590252 rxn_smarts="[N:1]([c:2]1[c:3]([H:9])[c:4]([H:10])[c:5]([H:11])[n:6]1[H:12])([H:7])[H:8]>>[N:1]([N+:6]1([H:12])[C-:2]=[C:3]([H:9])[C:4]([H:10])=[C:5]1[H:11])([H:7])[H:8]"
N        1.77985490      -0.63218596      -0.20938126
C        0.66502146       0.55262812       0.60151796
C       -0.33106021       1.36646615       0.15835761
C       -1.49112042       0.57548347      -0.17810571
C       -1.13021123      -0.72565759      -0.14859269
N        0.13714500      -0.78290380       0.46495438
H        1.78826520      -0.39278345      -1.19173069
H        2.59878205      -0.27238367       0.26229246
H       -0.18924208       2.40430163      -0.10555154
H       -2.45918830       0.94898054      -0.47757265
H       -1.64323808      -1.63314807      -0.42077677
H        0.27499173      -1.40879738       1.24458891
