11
Frame=0 idx=002658 GeodesicLength=0.0 rxn_smarts="[C:1]([n:2]1[c:3]([H:10])[n:4][n:5][c:6]1[H:11])([H:7])([H:8])[H:9]>>[C:1](=[N:2]/[C:6](=[N:5]\[N+:4]#[C-:3])[H:11])([H:7])[H:9].[H:8][H:10]"
C       -1.24000496      -0.32230401       0.15774107
N        0.06309276      -0.24155623       0.29741446
C        0.74649023       1.08362392       0.42603366
N        1.96319148       0.87538941       0.17198373
N        2.21524717      -0.48382582      -0.15043684
C        1.07800407      -1.06718786      -0.17763898
H       -1.66351058      -1.03027442      -0.54737648
H       -1.44628817       1.42572928      -0.51127152
H       -1.87747108       0.11347257       0.91382923
H       -0.75697241       1.75925277      -0.17950626
H        0.91822151      -2.11231962      -0.40077207
11
Frame=1 idx=002658 GeodesicLength=0.09982340159197632 rxn_smarts="[C:1]([n:2]1[c:3]([H:10])[n:4][n:5][c:6]1[H:11])([H:7])([H:8])[H:9]>>[C:1](=[N:2]/[C:6](=[N:5]\[N+:4]#[C-:3])[H:11])([H:7])[H:9].[H:8][H:10]"
C       -1.24556920      -0.32270780       0.14526378
N        0.05843781      -0.23743565       0.29852223
C        0.76190469       1.10521750       0.42685706
N        1.97032111       0.87327429       0.16240466
N        2.21087646      -0.48450483      -0.15651069
C        1.07238391      -1.06733225      -0.16799628
H       -1.65533500      -1.05685825      -0.54184420
H       -1.44712702       1.42979880      -0.49772690
H       -1.89490143       0.09554854       0.90158755
H       -0.73993193       1.77577912      -0.17381452
H        0.90894061      -2.11077947      -0.39674270
11
Frame=2 idx=002658 GeodesicLength=0.1996812670608763 rxn_smarts="[C:1]([n:2]1[c:3]([H:10])[n:4][n:5][c:6]1[H:11])([H:7])([H:8])[H:9]>>[C:1](=[N:2]/[C:6](=[N:5]\[N+:4]#[C-:3])[H:11])([H:7])[H:9].[H:8][H:10]"
C       -1.25125447      -0.32318988       0.13200600
N        0.05351402      -0.23324878       0.29916260
C        0.77793804       1.12720444       0.42694632
N        1.97739719       0.87106945       0.15235785
N        2.20642759      -0.48544903      -0.16197284
C        1.06669368      -1.06739832      -0.15822080
H       -1.64703688      -1.08331819      -0.53574413
H       -1.44834629       1.43402304      -0.48331913
H       -1.91226888       0.07692086       0.88851037
H       -0.72274436       1.79261747      -0.16749558
H        0.89968036      -2.10923106      -0.39223065
11
Frame=3 idx=002658 GeodesicLength=0.29944543857339245 rxn_smarts="[C:1]([n:2]1[c:3]([H:10])[n:4][n:5][c:6]1[H:11])([H:7])([H:8])[H:9]>>[C:1](=[N:2]/[C:6](=[N:5]\[N+:4]#[C-:3])[H:11])([H:7])[H:9].[H:8][H:10]"
C       -1.25705430      -0.32375304       0.11789338
N        0.04830062      -0.22900487       0.29930558
C        0.79460795       1.14954572       0.42636775
N        1.98439890       0.86879985       0.14172454
N        2.20181487      -0.48664356      -0.16694992
C        1.06090384      -1.06736355      -0.14838010
H       -1.63857439      -1.10956508      -0.52915362
H       -1.44990753       1.43835872      -0.46800003
H       -1.92956751       0.05760253       0.87448965
H       -0.70542481       1.80976251      -0.16035508
H        0.89050234      -2.10773924      -0.38694215
11
Frame=4 idx=002658 GeodesicLength=0.3992445189273094 rxn_smarts="[C:1]([n:2]1[c:3]([H:10])[n:4][n:5][c:6]1[H:11])([H:7])([H:8])[H:9]>>[C:1](=[N:2]/[C:6](=[N:5]\[N+:4]#[C-:3])[H:11])([H:7])[H:9].[H:8][H:10]"
C       -1.26295781      -0.32451841       0.10325344
N        0.04282481      -0.22473880       0.29905702
C        0.81190688       1.17231878       0.42490282
N        1.99131222       0.86639639       0.13080282
N        2.19718874      -0.48810555      -0.17104376
C        1.05497672      -1.06712870      -0.13873692
H       -1.63006605      -1.13531559      -0.52210467
H       -1.45191574       1.44248698      -0.45185470
H       -1.94668028       0.03772646       0.85977475
H       -0.68794133       1.82707394      -0.15276174
H        0.88135186      -2.10619550      -0.38128907
11
Frame=5 idx=002658 GeodesicLength=0.4990478992500458 rxn_smarts="[C:1]([n:2]1[c:3]([H:10])[n:4][n:5][c:6]1[H:11])([H:7])([H:8])[H:9]>>[C:1](=[N:2]/[C:6](=[N:5]\[N+:4]#[C-:3])[H:11])([H:7])[H:9].[H:8][H:10]"
C       -1.26898474      -0.32551053       0.08809829
N        0.03707263      -0.22047376       0.29844756
C        0.82987339       1.19550430       0.42260257
N        1.99816393       0.86389355       0.11951768
N        2.19250732      -0.48980144      -0.17434063
C        1.04890472      -1.06669128      -0.12930400
H       -1.62152388      -1.16049662      -0.51468700
H       -1.45433616       1.44633254      -0.43492368
H       -1.96363794       0.01733644       0.84433485
H       -0.67031121       1.84454673      -0.14459309
H        0.87227193      -2.10463992      -0.37515254
11
Frame=6 idx=002658 GeodesicLength=0.5988375992630426 rxn_smarts="[C:1]([n:2]1[c:3]([H:10])[n:4][n:5][c:6]1[H:11])([H:7])([H:8])[H:9]>>[C:1](=[N:2]/[C:6](=[N:5]\[N+:4]#[C-:3])[H:11])([H:7])[H:9].[H:8][H:10]"
C       -1.27512706      -0.32677880       0.07254581
N        0.03104381      -0.21622589       0.29754829
C        0.84852332       1.21912240       0.41939216
N        2.00493569       0.86129046       0.10790738
N        2.18777971      -0.49171084      -0.17683732
C        1.04267123      -1.06603999      -0.12008197
H       -1.61295592      -1.18494635      -0.50706839
H       -1.45719022       1.44974551      -0.41720332
H       -1.98042223      -0.00351890       0.82823879
H       -0.65251223       1.86212593      -0.13589398
H        0.86325390      -2.10306353      -0.36854744
11
Frame=7 idx=002658 GeodesicLength=0.6986704873798469 rxn_smarts="[C:1]([n:2]1[c:3]([H:10])[n:4][n:5][c:6]1[H:11])([H:7])([H:8])[H:9]>>[C:1](=[N:2]/[C:6](=[N:5]\[N+:4]#[C-:3])[H:11])([H:7])[H:9].[H:8][H:10]"
C       -1.28139285      -0.32836483       0.05673490
N        0.02473739      -0.21200900       0.29644351
C        0.86787161       1.24320908       0.41515890
N        2.01159201       0.85859199       0.09608756
N        2.18307737      -0.49382893      -0.17856551
C        1.03627639      -1.06517329      -0.11104005
H       -1.60438550      -1.20852021      -0.49943384
H       -1.46054257       1.45260021      -0.39866958
H       -1.99704468      -0.02480509       0.81159284
H       -0.63446979       1.87974359      -0.12678122
H        0.85428061      -2.10144352      -0.36152749
11
Frame=8 idx=002658 GeodesicLength=0.7983802133239235 rxn_smarts="[C:1]([n:2]1[c:3]([H:10])[n:4][n:5][c:6]1[H:11])([H:7])([H:8])[H:9]>>[C:1](=[N:2]/[C:6](=[N:5]\[N+:4]#[C-:3])[H:11])([H:7])[H:9].[H:8][H:10]"
C       -1.28775250      -0.33029504       0.04068551
N        0.01814203      -0.20785174       0.29522113
C        0.88797438       1.26774476       0.40995753
N        2.01819446       0.85574610       0.08395721
N        2.17811593      -0.49597722      -0.17976758
C        1.02970100      -1.06409800      -0.10206668
H       -1.59577709      -1.23120014      -0.49194227
H       -1.46421732       1.45477644      -0.37946777
H       -2.01350321      -0.04645652       0.79432995
H       -0.61626488       1.89743416      -0.11699096
H        0.84538720      -2.09982280      -0.35391607
11
Frame=9 idx=002658 GeodesicLength=0.8981388660146058 rxn_smarts="[C:1]([n:2]1[c:3]([H:10])[n:4][n:5][c:6]1[H:11])([H:7])([H:8])[H:9]>>[C:1](=[N:2]/[C:6](=[N:5]\[N+:4]#[C-:3])[H:11])([H:7])[H:9].[H:8][H:10]"
C       -1.29423847      -0.33259294       0.02456923
N        0.01125906      -0.20375849       0.29393788
C        0.90883609       1.29279760       0.40357044
N        2.02467370       0.85278706       0.07167258
N        2.17314463      -0.49825317      -0.18021594
C        1.02295456      -1.06280721      -0.09322270
H       -1.58719614      -1.25289333      -0.48474857
H       -1.46839387       1.45619701      -0.35951129
H       -2.02982351      -0.06846693       0.77665112
H       -0.59775379       1.91514379      -0.10677434
H        0.83653775      -2.09815339      -0.34592842
11
Frame=10 idx=002658 GeodesicLength=0.9978418679962168 rxn_smarts="[C:1]([n:2]1[c:3]([H:10])[n:4][n:5][c:6]1[H:11])([H:7])([H:8])[H:9]>>[C:1](=[N:2]/[C:6](=[N:5]\[N+:4]#[C-:3])[H:11])([H:7])[H:9].[H:8][H:10]"
C       -1.30082222      -0.33524379       0.00831765
N        0.00408395      -0.19970159       0.29259345
C        0.93054185       1.31835414       0.39573516
N        2.03099545       0.84965990       0.05832727
N        2.16822232      -0.50070025      -0.17934166
C        1.01601271      -1.06131174      -0.08434429
H       -1.57855501      -1.27334466      -0.47851487
H       -1.47315305       1.45686912      -0.33833398
H       -2.04601908      -0.09110545       0.75851730
H       -0.57902884       1.93306599      -0.09581030
H        0.82772192      -2.09654166      -0.33714574
11
Frame=11 idx=002658 GeodesicLength=1.0975381841901797 rxn_smarts="[C:1]([n:2]1[c:3]([H:10])[n:4][n:5][c:6]1[H:11])([H:7])([H:8])[H:9]>>[C:1](=[N:2]/[C:6](=[N:5]\[N+:4]#[C-:3])[H:11])([H:7])[H:9].[H:8][H:10]"
C       -1.30754481      -0.33825970      -0.00789148
N       -0.00340724      -0.19571653       0.29126540
C        0.95309048       1.34444757       0.38653959
N        2.03719588       0.84650977       0.04506796
N        2.16322178      -0.50325942      -0.17777394
C        1.00885992      -1.05954645      -0.07559262
H       -1.57000567      -1.29296533      -0.47253090
H       -1.47835237       1.45656351      -0.31663512
H       -2.06210190      -0.11395887       0.73997860
H       -0.55985161       1.95091007      -0.08425862
H        0.81889555      -2.09472462      -0.32816886
11
Frame=12 idx=002658 GeodesicLength=1.1972402877769426 rxn_smarts="[C:1]([n:2]1[c:3]([H:10])[n:4][n:5][c:6]1[H:11])([H:7])([H:8])[H:9]>>[C:1](=[N:2]/[C:6](=[N:5]\[N+:4]#[C-:3])[H:11])([H:7])[H:9].[H:8][H:10]"
C       -1.31438335      -0.34161023      -0.02417407
N       -0.01122704      -0.19178286       0.28996761
C        0.97656689       1.37110345       0.37568666
N        2.04322748       0.84324200       0.03103898
N        2.15818506      -0.50593235      -0.17509847
C        1.00150389      -1.05758041      -0.06675535
H       -1.56143366      -1.31157452      -0.46746544
H       -1.48411245       1.45538731      -0.29399259
H       -2.07812261      -0.13728680       0.72096863
H       -0.54030368       1.96895270      -0.07168349
H        0.81009946      -2.09291829      -0.31849247
11
Frame=13 idx=002658 GeodesicLength=1.296951486933514 rxn_smarts="[C:1]([n:2]1[c:3]([H:10])[n:4][n:5][c:6]1[H:11])([H:7])([H:8])[H:9]>>[C:1](=[N:2]/[C:6](=[N:5]\[N+:4]#[C-:3])[H:11])([H:7])[H:9].[H:8][H:10]"
C       -1.32133996      -0.34527542      -0.04053673
N       -0.01939589      -0.18789761       0.28873502
C        1.00103066       1.39832568       0.36295734
N        2.04904156       0.83985417       0.01608551
N        2.15311676      -0.50869705      -0.17119077
C        0.99392846      -1.05539418      -0.05777889
H       -1.55283812      -1.32920741      -0.46343204
H       -1.49043999       1.45326890      -0.27044423
H       -2.09410820      -0.16109718       0.70143775
H       -0.52031033       1.98721455      -0.05777957
H        0.80131507      -2.09109445      -0.30805339
11
Frame=14 idx=002658 GeodesicLength=1.3966690337662844 rxn_smarts="[C:1]([n:2]1[c:3]([H:10])[n:4][n:5][c:6]1[H:11])([H:7])([H:8])[H:9]>>[C:1](=[N:2]/[C:6](=[N:5]\[N+:4]#[C-:3])[H:11])([H:7])[H:9].[H:8][H:10]"
C       -1.32842289      -0.34924874      -0.05694246
N       -0.02793478      -0.18407208       0.28761273
C        1.02651328       1.42612098       0.34812324
N        2.05459040       0.83634430       0.00017242
N        2.14803533      -0.51152602      -0.16585056
C        0.98611792      -1.05296196      -0.04868507
H       -1.54424993      -1.34597008      -0.46035518
H       -1.49732069       1.45011064      -0.24623007
H       -2.11007867      -0.18531185       0.68137422
H       -0.49978290       2.00570400      -0.04221195
H        0.79253293      -2.08918918      -0.29700733
11
Frame=15 idx=002658 GeodesicLength=1.4963871031662337 rxn_smarts="[C:1]([n:2]1[c:3]([H:10])[n:4][n:5][c:6]1[H:11])([H:7])([H:8])[H:9]>>[C:1](=[N:2]/[C:6](=[N:5]\[N+:4]#[C-:3])[H:11])([H:7])[H:9].[H:8][H:10]"
C       -1.33562956      -0.35352521      -0.07341119
N       -0.03686975      -0.18031815       0.28664635
C        1.05305935       1.45448090       0.33091469
N        2.05981426       0.83269764      -0.01688814
N        2.14291960      -0.51435669      -0.15896894
C        0.97806492      -1.05027107      -0.03943359
H       -1.53567351      -1.36197257      -0.45818179
H       -1.50472042       1.44583062      -0.22173180
H       -2.12607384      -0.20983790       0.66068135
H       -0.47865845       2.02445713      -0.02429021
H        0.78376739      -2.08718471      -0.28533671
11
Frame=16 idx=002658 GeodesicLength=1.5960902806304542 rxn_smarts="[C:1]([n:2]1[c:3]([H:10])[n:4][n:5][c:6]1[H:11])([H:7])([H:8])[H:9]>>[C:1](=[N:2]/[C:6](=[N:5]\[N+:4]#[C-:3])[H:11])([H:7])[H:9].[H:8][H:10]"
C       -1.34295368      -0.35811268      -0.08996161
N       -0.04623005      -0.17664932       0.28588158
C        1.08069339       1.48340063       0.31094971
N        2.06465210       0.82889116      -0.03524585
N        2.13774013      -0.51710735      -0.15043703
C        0.96976276      -1.04730427      -0.02998593
H       -1.52711700      -1.37734603      -0.45678603
H       -1.51260907       1.44035145      -0.19748573
H       -2.14213294      -0.23454827       0.63925370
H       -0.45684489       2.04347596      -0.00312943
H        0.77503924      -2.08505127      -0.27305338
