10
Frame=0 idx=000445 GeodesicLength=0.0 rxn_smarts="[O:1]([c:2]1[c:3]([H:8])[n:4]([H:9])[n:5][c:6]1[H:10])[H:7]>>[O:1]=[C:2]1[C+:3]([H:8])[N:4]([H:9])[N-:5][C:6]1([H:7])[H:10]"
O        2.21891195      -0.01889181       0.19627353
C        0.88877065       0.06556727       0.08238957
C       -0.11423007      -0.85644403       0.52419268
N       -1.29457211      -0.30274268       0.25465232
N       -1.20831174       0.92499674      -0.30322421
C        0.06577766       1.18177045      -0.38713328
H        1.22887799      -0.53787354      -0.85030246
H       -0.00498282      -1.84149352       0.94876792
H       -2.20237483      -0.72383461       0.34356088
H        0.42213333       2.10894574      -0.80917697
10
Frame=1 idx=000445 GeodesicLength=0.10234222215280417 rxn_smarts="[O:1]([c:2]1[c:3]([H:8])[n:4]([H:9])[n:5][c:6]1[H:10])[H:7]>>[O:1]=[C:2]1[C+:3]([H:8])[N:4]([H:9])[N-:5][C:6]1([H:7])[H:10]"
O        2.21482267      -0.01121834       0.19802774
C        0.88635621       0.06739638       0.10676618
C       -0.11769229      -0.85788771       0.53261745
N       -1.29665896      -0.29948515       0.26079472
N       -1.20973654       0.91598416      -0.31639440
C        0.06988798       1.15965830      -0.42610948
H        1.24498104      -0.51852999      -0.86533554
H       -0.01277014      -1.85272631       0.93503168
H       -2.20626146      -0.71360848       0.36622582
H        0.42707149       2.11041712      -0.79162417
10
Frame=2 idx=000445 GeodesicLength=0.20480718135950304 rxn_smarts="[O:1]([c:2]1[c:3]([H:8])[n:4]([H:9])[n:5][c:6]1[H:10])[H:7]>>[O:1]=[C:2]1[C+:3]([H:8])[N:4]([H:9])[N-:5][C:6]1([H:7])[H:10]"
O        2.20953273      -0.00365627       0.20059651
C        0.88327496       0.06981424       0.13049472
C       -0.12105968      -0.85906980       0.54071964
N       -1.29836713      -0.29614185       0.26603714
N       -1.21027013       0.90500159      -0.33319678
C        0.07469260       1.13808560      -0.46065907
H        1.26195161      -0.49780396      -0.88115035
H       -0.02043195      -1.86343378       0.91958100
H       -2.20978583      -0.70090545       0.39169256
H        0.43046281       2.10810968      -0.77411537
10
Frame=3 idx=000445 GeodesicLength=0.3072414637556843 rxn_smarts="[O:1]([c:2]1[c:3]([H:8])[n:4]([H:9])[n:5][c:6]1[H:10])[H:7]>>[O:1]=[C:2]1[C+:3]([H:8])[N:4]([H:9])[N-:5][C:6]1([H:7])[H:10]"
O        2.20376371       0.00271637       0.20305423
C        0.87992329       0.07254683       0.15438258
C       -0.12437928      -0.86019937       0.54925300
N       -1.29996024      -0.29273064       0.27120046
N       -1.21027218       0.89328583      -0.35057904
C        0.08026574       1.11846366      -0.48823622
H        1.27880894      -0.47500881      -0.89806839
H       -0.02800664      -1.87376607       0.90370549
H       -2.21298273      -0.68776626       0.41603478
H        0.43283940       2.10245846      -0.76074689
10
Frame=4 idx=000445 GeodesicLength=0.40969728580686493 rxn_smarts="[O:1]([c:2]1[c:3]([H:8])[n:4]([H:9])[n:5][c:6]1[H:10])[H:7]>>[O:1]=[C:2]1[C+:3]([H:8])[N:4]([H:9])[N-:5][C:6]1([H:7])[H:10]"
O        2.19758282       0.00723855       0.20370424
C        0.87643156       0.07530301       0.17803809
C       -0.12762659      -0.86088307       0.55896470
N       -1.30143386      -0.28901097       0.27704570
N       -1.20987229       0.88179233      -0.36630125
C        0.08640946       1.10044517      -0.51020311
H        1.29469641      -0.45084731      -0.91668022
H       -0.03542530      -1.88252505       0.89037685
H       -2.21568657      -0.67638608       0.43529652
H        0.43492436       2.09487342      -0.75024152
10
Frame=5 idx=000445 GeodesicLength=0.5121193841904707 rxn_smarts="[O:1]([c:2]1[c:3]([H:8])[n:4]([H:9])[n:5][c:6]1[H:10])[H:7]>>[O:1]=[C:2]1[C+:3]([H:8])[N:4]([H:9])[N-:5][C:6]1([H:7])[H:10]"
O        2.19102234       0.01034001       0.20341677
C        0.87282908       0.07811554       0.20151509
C       -0.13086345      -0.86127484       0.56956348
N       -1.30288496      -0.28542033       0.28261437
N       -1.20924038       0.86992461      -0.38181035
C        0.09300484       1.08338858      -0.52855880
H        1.31054079      -0.42563120      -0.93653631
H       -0.04273272      -1.89032874       0.87834734
H       -2.21830605      -0.66550249       0.45263453
H        0.43663050       2.08638886      -0.74118611
10
Frame=6 idx=000445 GeodesicLength=0.614521223021268 rxn_smarts="[O:1]([c:2]1[c:3]([H:8])[n:4]([H:9])[n:5][c:6]1[H:10])[H:7]>>[O:1]=[C:2]1[C+:3]([H:8])[N:4]([H:9])[N-:5][C:6]1([H:7])[H:10]"
O        2.18393271       0.01215031       0.20253163
C        0.86905034       0.08100251       0.22490696
C       -0.13414072      -0.86144898       0.58083463
N       -1.30430762      -0.28218690       0.28747152
N       -1.20836767       0.85736884      -0.39760514
C        0.09998927       1.06689788      -0.54427553
H        1.32677844      -0.39932843      -0.95749711
H       -0.04993930      -1.89731811       0.86716159
H       -2.22088486      -0.65445235       0.46935087
H        0.43788941       2.07731523      -0.73287941
10
Frame=7 idx=000445 GeodesicLength=0.7169456447772256 rxn_smarts="[O:1]([c:2]1[c:3]([H:8])[n:4]([H:9])[n:5][c:6]1[H:10])[H:7]>>[O:1]=[C:2]1[C+:3]([H:8])[N:4]([H:9])[N-:5][C:6]1([H:7])[H:10]"
O        2.17624176       0.01208797       0.19996608
C        0.86519463       0.08392938       0.24810032
C       -0.13742390      -0.86108890       0.59312964
N       -1.30562304      -0.27888198       0.29241954
N       -1.20718226       0.84485080      -0.41228222
C        0.10731438       1.05094338      -0.55753661
H        1.34278082      -0.37202637      -0.98009868
H       -0.05704605      -1.90276045       0.85867718
H       -2.22324537      -0.64483747       0.48256210
H        0.43898904       2.06778364      -0.72493735
10
Frame=8 idx=000445 GeodesicLength=0.819291677478457 rxn_smarts="[O:1]([c:2]1[c:3]([H:8])[n:4]([H:9])[n:5][c:6]1[H:10])[H:7]>>[O:1]=[C:2]1[C+:3]([H:8])[N:4]([H:9])[N-:5][C:6]1([H:7])[H:10]"
O        2.16807645       0.01012739       0.19593981
C        0.86136395       0.08697799       0.27127498
C       -0.14074926      -0.86029728       0.60643456
N       -1.30696652      -0.27559479       0.29734547
N       -1.20581731       0.83239442      -0.42610335
C        0.11494730       1.03546035      -0.56884943
H        1.35888818      -0.34358355      -1.00427601
H       -0.06407087      -1.90705640       0.85258595
H       -2.22566506      -0.63650742       0.49299509
H        0.43999315       2.05807929      -0.71734708
10
Frame=9 idx=000445 GeodesicLength=0.921637931923501 rxn_smarts="[O:1]([c:2]1[c:3]([H:8])[n:4]([H:9])[n:5][c:6]1[H:10])[H:7]>>[O:1]=[C:2]1[C+:3]([H:8])[N:4]([H:9])[N-:5][C:6]1([H:7])[H:10]"
O        2.15907279       0.00621339       0.19062706
C        0.85742743       0.09021134       0.29458871
C       -0.14416211      -0.85904889       0.62057199
N       -1.30825116      -0.27235930       0.30211960
N       -1.20415796       0.81973817      -0.43935153
C        0.12287529       1.02018656      -0.57849281
H        1.37541514      -0.31367376      -1.02997959
H       -0.07105066      -1.91020060       0.84849177
H       -2.22800443      -0.62908621       0.50135422
H        0.44083567       2.04801929      -0.70992942
10
Frame=10 idx=000445 GeodesicLength=1.0239046002061059 rxn_smarts="[O:1]([c:2]1[c:3]([H:8])[n:4]([H:9])[n:5][c:6]1[H:10])[H:7]>>[O:1]=[C:2]1[C+:3]([H:8])[N:4]([H:9])[N-:5][C:6]1([H:7])[H:10]"
O        2.14926981       0.00012007       0.18396375
C        0.85348268       0.09364765       0.31814796
C       -0.14768431      -0.85744961       0.63549702
N       -1.30957973      -0.26922733       0.30670839
N       -1.20228499       0.80689433      -0.45220524
C        0.13110555       1.00511539      -0.58670541
H        1.39259931      -0.28192588      -1.05733354
H       -0.07803895      -1.91240483       0.84668009
H       -2.23044858      -0.62258688       0.50784046
H        0.44157921       2.03781710      -0.70259348
10
Frame=11 idx=000445 GeodesicLength=1.1261589381910002 rxn_smarts="[O:1]([c:2]1[c:3]([H:8])[n:4]([H:9])[n:5][c:6]1[H:10])[H:7]>>[O:1]=[C:2]1[C+:3]([H:8])[N:4]([H:9])[N-:5][C:6]1([H:7])[H:10]"
O        2.13833167      -0.00835027       0.17592984
C        0.84945811       0.09729933       0.34207151
C       -0.15136919      -0.85546276       0.65114649
N       -1.31090208      -0.26621290       0.31108078
N       -1.20008205       0.79357262      -0.46494662
C        0.13967215       0.99002773      -0.59364866
H        1.41077066      -0.24778261      -1.08635893
H       -0.08512361      -1.91364752       0.84701394
H       -2.23291684      -0.61674258       0.51289883
H        0.44216119       2.02729894      -0.69518718
10
Frame=12 idx=000445 GeodesicLength=1.2283345432842752 rxn_smarts="[O:1]([c:2]1[c:3]([H:8])[n:4]([H:9])[n:5][c:6]1[H:10])[H:7]>>[O:1]=[C:2]1[C+:3]([H:8])[N:4]([H:9])[N-:5][C:6]1([H:7])[H:10]"
O        2.12610002      -0.01945882       0.16659280
C        0.84536292       0.10116234       0.36646953
C       -0.15525881      -0.85321970       0.66747449
N       -1.31227711      -0.26338128       0.31515697
N       -1.19756866       0.77946034      -0.47807009
C        0.14858423       0.97479604      -0.59953759
H        1.43048426      -0.21054467      -1.11699706
H       -0.09238832      -1.91421576       0.84931080
H       -2.23551307      -0.61109072       0.51730995
H        0.44247454       2.01649222      -0.68770980
10
Frame=13 idx=000445 GeodesicLength=1.3304706212006219 rxn_smarts="[O:1]([c:2]1[c:3]([H:8])[n:4]([H:9])[n:5][c:6]1[H:10])[H:7]>>[O:1]=[C:2]1[C+:3]([H:8])[N:4]([H:9])[N-:5][C:6]1([H:7])[H:10]"
O        2.11221899      -0.03363303       0.15560884
C        0.84120059       0.10514412       0.39134834
C       -0.15942304      -0.85064098       0.68457092
N       -1.31369090      -0.26068226       0.31904394
N       -1.19463734       0.76435825      -0.49163449
C        0.15788813       0.95920504      -0.60447206
H        1.45216371      -0.16931429      -1.14928374
H       -0.09999533      -1.91400525       0.85385438
H       -2.23821555      -0.60562900       0.52103867
H        0.44249074       2.00519740      -0.68007479
10
Frame=14 idx=000445 GeodesicLength=1.4325469110009033 rxn_smarts="[O:1]([c:2]1[c:3]([H:8])[n:4]([H:9])[n:5][c:6]1[H:10])[H:7]>>[O:1]=[C:2]1[C+:3]([H:8])[N:4]([H:9])[N-:5][C:6]1([H:7])[H:10]"
O        2.09634880      -0.05141519       0.14265712
C        0.83702616       0.10905909       0.41663328
C       -0.16395222      -0.84779012       0.70251571
N       -1.31517152      -0.25811395       0.32276926
N       -1.19120990       0.74773984      -0.50620851
C        0.16763965       0.94302651      -0.60865277
H        1.47657937      -0.12274977      -1.18308463
H       -0.10818802      -1.91315344       0.86083998
H       -2.24110536      -0.59991385       0.52467573
H        0.44203302       1.99331087      -0.67214518
10
Frame=15 idx=000445 GeodesicLength=1.5345534988953917 rxn_smarts="[O:1]([c:2]1[c:3]([H:8])[n:4]([H:9])[n:5][c:6]1[H:10])[H:7]>>[O:1]=[C:2]1[C+:3]([H:8])[N:4]([H:9])[N-:5][C:6]1([H:7])[H:10]"
O        2.07804223      -0.07356107       0.12710555
C        0.83294547       0.11256051       0.44209242
C       -0.16896032      -0.84468745       0.72144127
N       -1.31674141      -0.25565260       0.32637135
N       -1.18716638       0.72899487      -0.52229642
C        0.17788510       0.92593438      -0.61231174
H        1.50471969      -0.06901958      -1.21807691
H       -0.11730673      -1.91169490       0.87074118
H       -2.24426445      -0.59347513       0.52869455
H        0.44084681       1.98060098      -0.66376125
10
Frame=16 idx=000445 GeodesicLength=1.636475602073635 rxn_smarts="[O:1]([c:2]1[c:3]([H:8])[n:4]([H:9])[n:5][c:6]1[H:10])[H:7]>>[O:1]=[C:2]1[C+:3]([H:8])[N:4]([H:9])[N-:5][C:6]1([H:7])[H:10]"
O        2.05669564      -0.10111259       0.10786579
C        0.82915988       0.11507923       0.46725792
C       -0.17460575      -0.84134148       0.74155021
N       -1.31841639      -0.25325326       0.32991465
N       -1.18234077       0.70729891      -0.54049964
C        0.18868425       0.90748318      -0.61579997
H        1.53788590      -0.00553693      -1.25348852
H       -0.12785125      -1.90961771       0.88432360
H       -2.24779045      -0.58571138       0.53363077
H        0.43857893       1.96671204      -0.65475481
