12
Frame=0 idx=005635 GeodesicLength=0.0 rxn_smarts="[C:1]1([H:7])([H:8])[C@@:2]2([H:9])[C@@:3]3([H:10])[O:4][C@:5]1([H:11])[C@@:6]23[H:12]>>[C:1]1([H:7])([H:8])[C@:2]2([H:9])[C-:3]=[O+:4][C@@:5]1([H:11])[C:6]2([H:10])[H:12]"
C        1.10624981      -0.37565633      -0.37713630
C        0.33112620       0.93134956      -0.23473772
C       -1.07480049       0.67349677      -0.81124330
O       -1.10718639      -0.74345033      -0.96604139
C       -0.21059597      -1.00380561       0.10241760
C       -0.51912519       0.33693895       0.84536550
H        1.90139371      -0.46135928       0.36277866
H        1.45193389      -0.67796841      -1.36648766
H        0.72838236       1.93712580      -0.25502620
H       -1.69336169       0.73482150       0.32041295
H       -0.29158112      -2.01074780       0.50388460
H       -0.62243514       0.65925520       1.87581322
12
Frame=1 idx=005635 GeodesicLength=0.047399946462171355 rxn_smarts="[C:1]1([H:7])([H:8])[C@@:2]2([H:9])[C@@:3]3([H:10])[O:4][C@:5]1([H:11])[C@@:6]23[H:12]>>[C:1]1([H:7])([H:8])[C@:2]2([H:9])[C-:3]=[O+:4][C@@:5]1([H:11])[C:6]2([H:10])[H:12]"
C        1.10590536      -0.37540504      -0.37474861
C        0.32929562       0.93184965      -0.23711007
C       -1.07297523       0.66880627      -0.81638022
O       -1.10489448      -0.74385097      -0.97090426
C       -0.21090775      -1.00374009       0.10380461
C       -0.52309350       0.33615085       0.84422902
H        1.89916679      -0.45793838       0.36753445
H        1.45375899      -0.67819972      -1.36319833
H        0.72582038       1.93793927      -0.25749817
H       -1.70404937       0.74566590       0.32200746
H       -0.29391518      -2.01116982       0.50334378
H       -0.60411163       0.64989210       1.87892035
12
Frame=2 idx=005635 GeodesicLength=0.09480055996370676 rxn_smarts="[C:1]1([H:7])([H:8])[C@@:2]2([H:9])[C@@:3]3([H:10])[O:4][C@:5]1([H:11])[C@@:6]23[H:12]>>[C:1]1([H:7])([H:8])[C@:2]2([H:9])[C-:3]=[O+:4][C@@:5]1([H:11])[C:6]2([H:10])[H:12]"
C        1.10555259      -0.37514211      -0.37233881
C        0.32745030       0.93233684      -0.23945311
C       -1.07114268       0.66409180      -0.82146430
O       -1.10257407      -0.74429654      -0.97572822
C       -0.21121289      -1.00367102       0.10523798
C       -0.52709368       0.33537114       0.84315384
H        1.89693502      -0.45449235       0.37228418
H        1.45556964      -0.67841470      -1.35988452
H        0.72323305       1.93874354      -0.25995330
H       -1.71473707       0.75674721       0.32367514
H       -0.29621677      -2.01158564       0.50284403
H       -0.58576343       0.64031184       1.88162709
12
Frame=3 idx=005635 GeodesicLength=0.14220171369180484 rxn_smarts="[C:1]1([H:7])([H:8])[C@@:2]2([H:9])[C@@:3]3([H:10])[O:4][C@:5]1([H:11])[C@@:6]23[H:12]>>[C:1]1([H:7])([H:8])[C@:2]2([H:9])[C-:3]=[O+:4][C@@:5]1([H:11])[C:6]2([H:10])[H:12]"
C        1.10519447      -0.37486962      -0.36991205
C        0.32559383       0.93280900      -0.24176537
C       -1.06930105       0.65935241      -0.82648912
O       -1.10022480      -0.74478740      -0.98050975
C       -0.21150671      -1.00360134       0.10671675
C       -0.53111583       0.33459441       0.84214421
H        1.89470462      -0.45102532       0.37701915
H        1.45736468      -0.67861307      -1.35655363
H        0.72062417       1.93953637      -0.26238874
H       -1.72541784       0.76806765       0.32543150
H       -0.29847982      -2.01199887       0.50238332
H       -0.56743572       0.63053579       1.88392373
12
Frame=4 idx=005635 GeodesicLength=0.1896032181488011 rxn_smarts="[C:1]1([H:7])([H:8])[C@@:2]2([H:9])[C@@:3]3([H:10])[O:4][C@:5]1([H:11])[C@@:6]23[H:12]>>[C:1]1([H:7])([H:8])[C@:2]2([H:9])[C-:3]=[O+:4][C@@:5]1([H:11])[C:6]2([H:10])[H:12]"
C        1.10483408      -0.37458980      -0.36747372
C        0.32372978       0.93326382      -0.24404575
C       -1.06744866       0.65458697      -0.83144868
O       -1.09784625      -0.74532404      -0.98524592
C       -0.21178436      -1.00353439       0.10823934
C       -0.53514994       0.33381468       0.84120364
H        1.89248178      -0.44754149       0.38173074
H        1.45914336      -0.67879462      -1.35321326
H        0.71799745       1.94031539      -0.26480184
H       -1.73608449       0.77962951       0.32729252
H       -0.30069815      -2.01241342       0.50195915
H       -0.54917459       0.62058740       1.88580377
12
Frame=5 idx=005635 GeodesicLength=0.2370051689494751 rxn_smarts="[C:1]1([H:7])([H:8])[C@@:2]2([H:9])[C@@:3]3([H:10])[O:4][C@:5]1([H:11])[C@@:6]23[H:12]>>[C:1]1([H:7])([H:8])[C@:2]2([H:9])[C-:3]=[O+:4][C@@:5]1([H:11])[C:6]2([H:10])[H:12]"
C        1.10447464      -0.37430495      -0.36502909
C        0.32186145       0.93369892      -0.24629369
C       -1.06558410       0.64979424      -0.83633772
O       -1.09543790      -0.74590714      -0.98993472
C       -0.21204110      -1.00347377       0.10980355
C       -0.53918649       0.33302566       0.84033474
H        1.89027237      -0.44404490       0.38641102
H        1.46090560      -0.67895928      -1.34987070
H        0.71535611       1.94107825      -0.26719057
H       -1.74672988       0.79143539       0.32927427
H       -0.30286591      -2.01283349       0.50156841
H       -0.53102479       0.61049107       1.88726449
12
Frame=6 idx=005635 GeodesicLength=0.28440744631060383 rxn_smarts="[C:1]1([H:7])([H:8])[C@@:2]2([H:9])[C@@:3]3([H:10])[O:4][C@:5]1([H:11])[C@@:6]23[H:12]>>[C:1]1([H:7])([H:8])[C@:2]2([H:9])[C-:3]=[O+:4][C@@:5]1([H:11])[C:6]2([H:10])[H:12]"
C        1.10411941      -0.37401737      -0.36258345
C        0.31999202       0.93411187      -0.24850906
C       -1.06370608       0.64497275      -0.84115175
O       -1.09299918      -0.74653755      -0.99457477
C       -0.21227216      -1.00342331       0.11140674
C       -0.54321624       0.33222079       0.83953923
H        1.88808202      -0.44053941       0.39105243
H        1.46265165      -0.67910711      -1.34653321
H        0.71270315       1.94182256      -0.26955332
H       -1.75734673       0.80348828       0.33139290
H       -0.30497724      -2.01326337       0.50120772
H       -0.51303061       0.60027187       1.88830654
12
Frame=7 idx=005635 GeodesicLength=0.3318101224994143 rxn_smarts="[C:1]1([H:7])([H:8])[C@@:2]2([H:9])[C@@:3]3([H:10])[O:4][C@:5]1([H:11])[C@@:6]23[H:12]>>[C:1]1([H:7])([H:8])[C@:2]2([H:9])[C-:3]=[O+:4][C@@:5]1([H:11])[C:6]2([H:10])[H:12]"
C        1.10377155      -0.37372933      -0.36014174
C        0.31812415       0.93450020      -0.25069223
C       -1.06181360       0.64012084      -0.84588732
O       -1.09052936      -0.74721637      -0.99916573
C       -0.21247307      -1.00338704       0.11304571
C       -0.54723096       0.33139332       0.83881781
H        1.88591572      -0.43702852       0.39564847
H        1.46438249      -0.67923820      -1.34320736
H        0.71004087       1.94254598      -0.27188901
H       -1.76792812       0.81579155       0.33366423
H       -0.30702679      -2.01370758       0.50087312
H       -0.49523287       0.58995515       1.88893402
12
Frame=8 idx=005635 GeodesicLength=0.37921315435212893 rxn_smarts="[C:1]1([H:7])([H:8])[C@@:2]2([H:9])[C@@:3]3([H:10])[O:4][C@:5]1([H:11])[C@@:6]23[H:12]>>[C:1]1([H:7])([H:8])[C@:2]2([H:9])[C-:3]=[O+:4][C@@:5]1([H:11])[C:6]2([H:10])[H:12]"
C        1.10343414      -0.37344302      -0.35770861
C        0.31626015       0.93486144      -0.25284397
C       -1.05990582       0.63523661      -0.85054204
O       -1.08802758      -0.74794494      -1.00370809
C       -0.21263960      -1.00336906       0.11471693
C       -0.55122331       0.33053649       0.83817023
H        1.88377794      -0.43351541       0.40019340
H        1.46609948      -0.67935270      -1.33989928
H        0.70737108       1.94324623      -0.27419683
H       -1.77846734       0.82834903       0.33610373
H       -0.30900947      -2.01417059       0.50056055
H       -0.47766968       0.57956591       1.88915399
12
Frame=9 idx=005635 GeodesicLength=0.42661730094098776 rxn_smarts="[C:1]1([H:7])([H:8])[C@@:2]2([H:9])[C@@:3]3([H:10])[O:4][C@:5]1([H:11])[C@@:6]23[H:12]>>[C:1]1([H:7])([H:8])[C@:2]2([H:9])[C-:3]=[O+:4][C@@:5]1([H:11])[C:6]2([H:10])[H:12]"
C        1.10311018      -0.37316055      -0.35528826
C        0.31440172       0.93519324      -0.25496558
C       -1.05798231       0.63031801      -0.85511496
O       -1.08549286      -0.74872490      -1.00820347
C       -0.21276789      -1.00337347       0.11641653
C       -0.55518732       0.32964380       0.83759529
H        1.88167260      -0.43000279       0.40468273
H        1.46780474      -0.67945099      -1.33661439
H        0.70469476       1.94392124      -0.27647663
H       -1.78895842       0.84116549       0.33872618
H       -0.31092066      -2.01465681       0.50026584
H       -0.46037454       0.56912771       1.88897671
12
Frame=10 idx=005635 GeodesicLength=0.47403888321750665 rxn_smarts="[C:1]1([H:7])([H:8])[C@@:2]2([H:9])[C@@:3]3([H:10])[O:4][C@:5]1([H:11])[C@@:6]23[H:12]>>[C:1]1([H:7])([H:8])[C@:2]2([H:9])[C-:3]=[O+:4][C@@:5]1([H:11])[C:6]2([H:10])[H:12]"
C        1.10280611      -0.37288524      -0.35288539
C        0.31254996       0.93549318      -0.25705941
C       -1.05604676       0.62536372      -0.85960923
O       -1.08292685      -0.74955761      -1.01265814
C       -0.21285439      -1.00340433       0.11814058
C       -0.55912053       0.32870997       0.83709365
H        1.87960896      -0.42649470       0.40911476
H        1.46950614      -0.67953577      -1.33336159
H        0.70201242       1.94456880      -0.27872931
H       -1.79940225       0.85424882       0.34154681
H       -0.31275551      -2.01517069       0.49998574
H       -0.44337730       0.55866384       1.88842153
12
Frame=11 idx=005635 GeodesicLength=0.521426377153731 rxn_smarts="[C:1]1([H:7])([H:8])[C@@:2]2([H:9])[C@@:3]3([H:10])[O:4][C@:5]1([H:11])[C@@:6]23[H:12]>>[C:1]1([H:7])([H:8])[C@:2]2([H:9])[C-:3]=[O+:4][C@@:5]1([H:11])[C:6]2([H:10])[H:12]"
C        1.10251236      -0.37261410      -0.35049995
C        0.31070625       0.93576030      -0.25912527
C       -1.05408584       0.62036833      -0.86401621
O       -1.08031969      -0.75044758      -1.01706252
C       -0.21289621      -1.00346643       0.11988475
C       -0.56301041       0.32772526       0.83665412
H        1.87756976      -0.42298641       0.41348152
H        1.47118850      -0.67959978      -1.33013129
H        0.69932373       1.94518940      -0.28095454
H       -1.80977040       0.86759731       0.34457678
H       -0.31451266      -2.01571765       0.49971286
H       -0.42670540       0.54819134       1.88747974
12
Frame=12 idx=005635 GeodesicLength=0.5688349689441947 rxn_smarts="[C:1]1([H:7])([H:8])[C@@:2]2([H:9])[C@@:3]3([H:10])[O:4][C@:5]1([H:11])[C@@:6]23[H:12]>>[C:1]1([H:7])([H:8])[C@:2]2([H:9])[C-:3]=[O+:4][C@@:5]1([H:11])[C:6]2([H:10])[H:12]"
C        1.10224278      -0.37235312      -0.34813732
C        0.30886885       0.93599002      -0.26116837
C       -1.05211290       0.61533067      -0.86834849
O       -1.07767738      -0.75139490      -1.02143370
C       -0.21289134      -1.00356246       0.12164420
C       -0.56686579       0.32668643       0.83628020
H        1.87557482      -0.41948094       0.41778788
H        1.47287359      -0.67965316      -1.32693774
H        0.69662511       1.94577761      -0.28315098
H       -1.82008021       0.88122960       0.34783141
H       -0.31618716      -2.01629878       0.49944669
H       -0.41037039       0.53772905       1.88618622
12
Frame=13 idx=005635 GeodesicLength=0.6162415738603897 rxn_smarts="[C:1]1([H:7])([H:8])[C@@:2]2([H:9])[C@@:3]3([H:10])[O:4][C@:5]1([H:11])[C@@:6]23[H:12]>>[C:1]1([H:7])([H:8])[C@:2]2([H:9])[C-:3]=[O+:4][C@@:5]1([H:11])[C:6]2([H:10])[H:12]"
C        1.10199522      -0.37210036      -0.34579928
C        0.30703933       0.93618171      -0.26318970
C       -1.05012213       0.61024705      -0.87260418
O       -1.07499508      -0.75240193      -1.02576859
C       -0.21283711      -1.00369397       0.12341644
C       -0.57068059       0.32558917       0.83596447
H        1.87362035      -0.41597983       0.42202725
H        1.47455807      -0.67968843      -1.32377962
H        0.69392191       1.94633103      -0.28532608
H       -1.83032064       0.89514290       0.35132158
H       -0.31777956      -2.01691398       0.49918584
H       -0.39439976       0.52728665       1.88455187
12
Frame=14 idx=005635 GeodesicLength=0.6636548366698999 rxn_smarts="[C:1]1([H:7])([H:8])[C@@:2]2([H:9])[C@@:3]3([H:10])[O:4][C@:5]1([H:11])[C@@:6]23[H:12]>>[C:1]1([H:7])([H:8])[C@:2]2([H:9])[C-:3]=[O+:4][C@@:5]1([H:11])[C:6]2([H:10])[H:12]"
C        1.10177154      -0.37185909      -0.34348625
C        0.30521484       0.93633409      -0.26519305
C       -1.04811640       0.60511494      -0.87678965
O       -1.07227090      -0.75347394      -1.03007731
C       -0.21273149      -1.00386853       0.12519554
C       -0.57445524       0.32442667       0.83570385
H        1.87170572      -0.41248281       0.42620543
H        1.47624891      -0.67970750      -1.32065818
H        0.69120564       1.94685250      -0.28747956
H       -1.84048632       0.90935241       0.35506214
H       -0.31928834      -2.01757367       0.49892401
H       -0.37879795       0.51688493       1.88259303
12
Frame=15 idx=005635 GeodesicLength=0.7110746405442493 rxn_smarts="[C:1]1([H:7])([H:8])[C@@:2]2([H:9])[C@@:3]3([H:10])[O:4][C@:5]1([H:11])[C@@:6]23[H:12]>>[C:1]1([H:7])([H:8])[C@:2]2([H:9])[C-:3]=[O+:4][C@@:5]1([H:11])[C:6]2([H:10])[H:12]"
C        1.10157253      -0.37162835      -0.34119638
C        0.30339274       0.93644451      -0.26718152
C       -1.04609661       0.59992920      -0.88090899
O       -1.06950304      -0.75461391      -1.03436396
C       -0.21257476      -1.00408796       0.12697724
C       -0.57819294       0.32319401       0.83549201
H        1.86982669      -0.40898487       0.43032851
H        1.47795127      -0.67971170      -1.31756817
H        0.68846891       1.94733990      -0.28961966
H       -1.85056965       0.92387424       0.35906410
H       -0.32071141      -2.01827983       0.49865343
H       -0.36356374       0.50652476       1.88032341
12
Frame=16 idx=005635 GeodesicLength=0.7584986278650746 rxn_smarts="[C:1]1([H:7])([H:8])[C@@:2]2([H:9])[C@@:3]3([H:10])[O:4][C@:5]1([H:11])[C@@:6]23[H:12]>>[C:1]1([H:7])([H:8])[C@:2]2([H:9])[C-:3]=[O+:4][C@@:5]1([H:11])[C:6]2([H:10])[H:12]"
C        1.10139979      -0.37140938      -0.33893242
C        0.30157297       0.93651122      -0.26915725
C       -1.04406125       0.59468702      -0.88496678
O       -1.06668923      -0.75582480      -1.03863265
C       -0.21236449      -1.00435584       0.12875767
C       -0.58189328       0.32188590       0.83532397
H        1.86798431      -0.40548848       0.43439423
H        1.47966703      -0.67970078      -1.31451297
H        0.68571198       1.94779151      -0.29174543
H       -1.86056595       0.93871282       0.36334210
H       -0.32204463      -2.01903634       0.49837066
H       -0.34871725       0.49622714       1.87775887
