18
Frame=0 idx=008115 GeodesicLength=0.0 rxn_smarts="[C:1]([N:2]([C:3](=[O:4])[C:5]([C:6]([H:13])([H:14])[H:15])([C:7]([H:16])([H:17])[H:18])[H:12])[H:11])([H:8])([H:9])[H:10]>>[C:1]([N:2]([C:3][O:4][H:15])[H:11])([H:8])([H:9])[H:10].[C:5](=[C:6]([H:13])[H:14])([C:7]([H:16])([H:17])[H:18])[H:12]"
C        2.98919309       0.49528484       0.17433146
N        1.67170735       0.64838972      -0.42557378
C        0.60570920      -0.06524197      -0.10699795
O        0.78442377      -0.94236807       0.80057619
C       -1.52400722      -0.42696431      -0.50028317
C       -1.72929368      -1.46636922       0.38534623
C       -2.07912488       0.94849438      -0.25704254
H        2.95241729       0.71026631       1.24302183
H        3.68241505       1.18453405      -0.30482660
H        3.35092488      -0.52486362       0.04258607
H        1.55174727       1.34712551      -1.13507694
H       -1.34427921      -0.66692698      -1.54247074
H       -1.73798670      -2.48871146       0.02447297
H       -2.25166987      -1.27519055       1.31790551
H       -0.21090897      -1.37288990       0.86214709
H       -3.13074801       0.97391272      -0.55901568
H       -2.03452864       1.20746843       0.80214341
H       -1.54599072       1.71405015      -0.82124328
18
Frame=1 idx=008115 GeodesicLength=0.1058902759882209 rxn_smarts="[C:1]([N:2]([C:3](=[O:4])[C:5]([C:6]([H:13])([H:14])[H:15])([C:7]([H:16])([H:17])[H:18])[H:12])[H:11])([H:8])([H:9])[H:10]>>[C:1]([N:2]([C:3][O:4][H:15])[H:11])([H:8])([H:9])[H:10].[C:5](=[C:6]([H:13])[H:14])([C:7]([H:16])([H:17])[H:18])[H:12]"
C        2.98802813       0.51274729       0.18275265
N        1.67978495       0.63700462      -0.44242190
C        0.60960758      -0.06463164      -0.10792098
O        0.79210236      -0.94783755       0.79269937
C       -1.51662830      -0.42073795      -0.49624089
C       -1.73606570      -1.46799698       0.38008225
C       -2.07654136       0.95140190      -0.24616499
H        2.93749910       0.78071453       1.23889994
H        3.69174577       1.17302490      -0.32136016
H        3.34962901      -0.51320475       0.10915053
H        1.56428162       1.31312248      -1.17421761
H       -1.34205722      -0.65339489      -1.54149829
H       -1.81055199      -2.48237426       0.00499080
H       -2.21528965      -1.29170433       1.33866625
H       -0.21288059      -1.42880466       0.82651684
H       -3.12554327       0.97814997      -0.55663062
H       -2.03723961       1.20375706       0.81475536
H       -1.53988083       1.72076426      -0.80205858
18
Frame=2 idx=008115 GeodesicLength=0.2117462317965589 rxn_smarts="[C:1]([N:2]([C:3](=[O:4])[C:5]([C:6]([H:13])([H:14])[H:15])([C:7]([H:16])([H:17])[H:18])[H:12])[H:11])([H:8])([H:9])[H:10]>>[C:1]([N:2]([C:3][O:4][H:15])[H:11])([H:8])([H:9])[H:10].[C:5](=[C:6]([H:13])[H:14])([C:7]([H:16])([H:17])[H:18])[H:12]"
C        2.98758195       0.52905670       0.19006231
N        1.68832128       0.62670928      -0.45714908
C        0.61328583      -0.06115915      -0.10632281
O        0.79925754      -0.95190424       0.78595226
C       -1.50880222      -0.41467764      -0.49195389
C       -1.74163223      -1.46953643       0.37531663
C       -2.07544645       0.95348739      -0.23600736
H        2.92548140       0.84840665       1.23126456
H        3.70276474       1.15812898      -0.33738267
H        3.34601931      -0.50042323       0.17342348
H        1.57755268       1.28046776      -1.20967431
H       -1.33786831      -0.64015821      -1.53991599
H       -1.88341592      -2.47204975      -0.01177102
H       -2.17789690      -1.31065060       1.35748495
H       -0.21511818      -1.48250480       0.78930121
H       -3.12137925       0.98034253      -0.55628822
H       -2.04318493       1.19930227       0.82661509
H       -1.53552034       1.72716250      -0.78295514
18
Frame=3 idx=008115 GeodesicLength=0.31751322959581907 rxn_smarts="[C:1]([N:2]([C:3](=[O:4])[C:5]([C:6]([H:13])([H:14])[H:15])([C:7]([H:16])([H:17])[H:18])[H:12])[H:11])([H:8])([H:9])[H:10]>>[C:1]([N:2]([C:3][O:4][H:15])[H:11])([H:8])([H:9])[H:10].[C:5](=[C:6]([H:13])[H:14])([C:7]([H:16])([H:17])[H:18])[H:12]"
C        2.98747507       0.54482162       0.19660965
N        1.69698154       0.61706332      -0.47021814
C        0.61699509      -0.05640406      -0.10331052
O        0.80646132      -0.95615475       0.77905314
C       -1.50064873      -0.40890440      -0.48749117
C       -1.74634910      -1.47109210       0.37097871
C       -2.07501799       0.95496254      -0.22640026
H        2.91532048       0.91391649       1.22064472
H        3.71458935       1.14115670      -0.35221581
H        3.34080895      -0.48572681       0.23586225
H        1.59091207       1.24860726      -1.24210368
H       -1.33252656      -0.62745951      -1.53790277
H       -1.95666767      -2.45771464      -0.02543205
H       -2.13987232      -1.33179771       1.37429896
H       -0.21814817      -1.53399677       0.75107614
H       -3.11752312       0.98135449      -0.55735716
H       -2.05092404       1.19422766       0.83786613
H       -1.53186617       1.73314068      -0.76395814
18
Frame=4 idx=008115 GeodesicLength=0.4231712156348945 rxn_smarts="[C:1]([N:2]([C:3](=[O:4])[C:5]([C:6]([H:13])([H:14])[H:15])([C:7]([H:16])([H:17])[H:18])[H:12])[H:11])([H:8])([H:9])[H:10]>>[C:1]([N:2]([C:3][O:4][H:15])[H:11])([H:8])([H:9])[H:10].[C:5](=[C:6]([H:13])[H:14])([C:7]([H:16])([H:17])[H:18])[H:12]"
C        2.98794706       0.55976123       0.20205750
N        1.70542775       0.60847542      -0.48117960
C        0.62066127      -0.05023264      -0.09820438
O        0.81375679      -0.96006791       0.77293664
C       -1.49201950      -0.40340057      -0.48288713
C       -1.75031276      -1.47279704       0.36679808
C       -2.07534102       0.95576818      -0.21754268
H        2.90818858       0.97678513       1.20702645
H        3.72710011       1.12180698      -0.36661575
H        3.33405177      -0.46966130       0.29559764
H        1.60353586       1.21839682      -1.27076345
H       -1.32556413      -0.61521984      -1.53546984
H       -2.02939284      -2.43949895      -0.03604915
H       -2.10198588      -1.35524277       1.38865175
H       -0.22229232      -1.58303984       0.71275641
H       -3.11391604       0.98104647      -0.56038459
H       -2.06092112       1.18839888       0.84830429
H       -1.52892358       1.73872177      -0.74503221
18
Frame=5 idx=008115 GeodesicLength=0.528667091797411 rxn_smarts="[C:1]([N:2]([C:3](=[O:4])[C:5]([C:6]([H:13])([H:14])[H:15])([C:7]([H:16])([H:17])[H:18])[H:12])[H:11])([H:8])([H:9])[H:10]>>[C:1]([N:2]([C:3][O:4][H:15])[H:11])([H:8])([H:9])[H:10].[C:5](=[C:6]([H:13])[H:14])([C:7]([H:16])([H:17])[H:18])[H:12]"
C        2.98759142       0.57570262       0.20778407
N        1.71390897       0.59917585      -0.49225984
C        0.62498069      -0.04631450      -0.09518149
O        0.82153015      -0.96577655       0.76504496
C       -1.48346314      -0.39850207      -0.47833144
C       -1.75419849      -1.47478823       0.36281154
C       -2.07438197       0.95643234      -0.20836815
H        2.89912667       1.04001664       1.19113195
H        3.73911485       1.10275531      -0.37801727
H        3.32637930      -0.44961086       0.35626105
H        1.61643741       1.18684895      -1.29902681
H       -1.31984178      -0.60386795      -1.53316526
H       -2.10322266      -2.41720016      -0.04299064
H       -2.06370901      -1.38072621       1.40101642
H       -0.22790537      -1.63155951       0.67267116
H       -3.10910800       0.98159306      -0.56234573
H       -2.06877942       1.18215422       0.85898594
H       -1.52445962       1.74366705      -0.72602042
18
Frame=6 idx=008115 GeodesicLength=0.6340216318215076 rxn_smarts="[C:1]([N:2]([C:3](=[O:4])[C:5]([C:6]([H:13])([H:14])[H:15])([C:7]([H:16])([H:17])[H:18])[H:12])[H:11])([H:8])([H:9])[H:10]>>[C:1]([N:2]([C:3][O:4][H:15])[H:11])([H:8])([H:9])[H:10].[C:5](=[C:6]([H:13])[H:14])([C:7]([H:16])([H:17])[H:18])[H:12]"
C        2.98774927       0.59094564       0.21243426
N        1.72211647       0.59073205      -0.50165215
C        0.62927404      -0.04140890      -0.09045022
O        0.82911884      -0.97007888       0.75913065
C       -1.47447416      -0.39383219      -0.47373165
C       -1.75756836      -1.47720569       0.35842940
C       -2.07394118       0.95649732      -0.19958143
H        2.89297288       1.10154721       1.17204293
H        3.75171820       1.08101826      -0.38925052
H        3.31707927      -0.42808414       0.41504068
H        1.62862567       1.15635828      -1.32442178
H       -1.31278395      -0.59261491      -1.53065635
H       -2.17541126      -2.39127994      -0.04719223
H       -2.02638012      -1.40889963       1.41032976
H       -0.23488029      -1.67811469       0.63256324
H       -3.10434984       0.98117641      -0.56566439
H       -2.07837764       1.17491082       0.86924133
H       -1.52048785       1.74833297      -0.70661154
18
Frame=7 idx=008115 GeodesicLength=0.7392261331236241 rxn_smarts="[C:1]([N:2]([C:3](=[O:4])[C:5]([C:6]([H:13])([H:14])[H:15])([C:7]([H:16])([H:17])[H:18])[H:12])[H:11])([H:8])([H:9])[H:10]>>[C:1]([N:2]([C:3][O:4][H:15])[H:11])([H:8])([H:9])[H:10].[C:5](=[C:6]([H:13])[H:14])([C:7]([H:16])([H:17])[H:18])[H:12]"
C        2.98792997       0.60607778       0.21654055
N        1.73008717       0.58268596      -0.51005286
C        0.63374873      -0.03680524      -0.08552152
O        0.83671198      -0.97383722       0.75417474
C       -1.46527661      -0.38956610      -0.46915531
C       -1.76071845      -1.48003409       0.35377792
C       -2.07329673       0.95613460      -0.19097335
H        2.88808307       1.16199312       1.15019322
H        3.76440755       1.05769044      -0.39915484
H        3.30639471      -0.40420624       0.47283647
H        1.64031731       1.12643808      -1.34777442
H       -1.30544166      -0.58178671      -1.52810846
H       -2.24652411      -2.36168638      -0.04799025
H       -1.98963877      -1.43940029       1.41694622
H       -0.24330917      -1.72368160       0.59147908
H       -3.09913682       0.98052402      -0.56938980
H       -2.08810365       1.16693147       0.87922591
H       -1.51623452       1.75252838      -0.68705332
18
Frame=8 idx=008115 GeodesicLength=0.8443176982455451 rxn_smarts="[C:1]([N:2]([C:3](=[O:4])[C:5]([C:6]([H:13])([H:14])[H:15])([C:7]([H:16])([H:17])[H:18])[H:12])[H:11])([H:8])([H:9])[H:10]>>[C:1]([N:2]([C:3][O:4][H:15])[H:11])([H:8])([H:9])[H:10].[C:5](=[C:6]([H:13])[H:14])([C:7]([H:16])([H:17])[H:18])[H:12]"
C        2.98834535       0.62085796       0.21994895
N        1.73776724       0.57518579      -0.51731738
C        0.63826413      -0.03199283      -0.07983124
O        0.84412672      -0.97634560       0.75103007
C       -1.45583720      -0.38560641      -0.46458815
C       -1.76363618      -1.48332476       0.34866735
C       -2.07273457       0.95531269      -0.18258207
H        2.88521285       1.22117866       1.12541621
H        3.77726491       1.03223132      -0.40809121
H        3.29429024      -0.37827542       0.52942578
H        1.65137526       1.09723968      -1.36900552
H       -1.29749288      -0.57114928      -1.52549926
H       -2.31582225      -2.32866626      -0.04552510
H       -1.95375049      -1.47233346       1.42065294
H       -0.25315053      -1.76822524       0.54939037
H       -3.09366771       0.97943772      -0.57377843
H       -2.09850769       1.15811356       0.88890080
H       -1.51204719       1.75636187      -0.66721411
18
Frame=9 idx=008115 GeodesicLength=0.9492865474830869 rxn_smarts="[C:1]([N:2]([C:3](=[O:4])[C:5]([C:6]([H:13])([H:14])[H:15])([C:7]([H:16])([H:17])[H:18])[H:12])[H:11])([H:8])([H:9])[H:10]>>[C:1]([N:2]([C:3][O:4][H:15])[H:11])([H:8])([H:9])[H:10].[C:5](=[C:6]([H:13])[H:14])([C:7]([H:16])([H:17])[H:18])[H:12]"
C        2.98889303       0.63552015       0.22273903
N        1.74547500       0.56742175      -0.52412398
C        0.64278747      -0.02682244      -0.07360167
O        0.85085781      -0.97657792       0.75066084
C       -1.44624091      -0.38167001      -0.46002164
C       -1.76633890      -1.48725242       0.34246641
C       -2.07231432       0.95417344      -0.17364995
H        2.88378829       1.28072588       1.09665896
H        3.79052691       1.00372649      -0.41599310
H        3.28041114      -0.34941327       0.58663660
H        1.66281542       1.06617873      -1.38994450
H       -1.28916193      -0.55984181      -1.52293000
H       -2.38229798      -2.29268398      -0.04095149
H       -1.91923970      -1.50842669       1.42073619
H       -0.26436284      -1.81159398       0.50611476
H       -3.08807441       0.97825205      -0.57781728
H       -2.10938365       1.14807746       0.89909319
H       -1.50814045       1.76020657      -0.64607238
18
Frame=10 idx=008115 GeodesicLength=1.0541576856070125 rxn_smarts="[C:1]([N:2]([C:3](=[O:4])[C:5]([C:6]([H:13])([H:14])[H:15])([C:7]([H:16])([H:17])[H:18])[H:12])[H:11])([H:8])([H:9])[H:10]>>[C:1]([N:2]([C:3][O:4][H:15])[H:11])([H:8])([H:9])[H:10].[C:5](=[C:6]([H:13])[H:14])([C:7]([H:16])([H:17])[H:18])[H:12]"
C        2.98966574       0.64980887       0.22491550
N        1.75287093       0.56007622      -0.52992321
C        0.64723952      -0.02135398      -0.06665947
O        0.85721144      -0.97511234       0.75262887
C       -1.43650467      -0.37795893      -0.45545659
C       -1.76892769      -1.49160116       0.33567291
C       -2.07201214       0.95265675      -0.16487060
H        2.88448256       1.33884870       1.06480088
H        3.80375547       0.97296190      -0.42247173
H        3.26512753      -0.31816137       0.64266679
H        1.67368913       1.03548829      -1.40901720
H       -1.28037720      -0.54854448      -1.52030742
H       -2.44608664      -2.25385752      -0.03293523
H       -1.88561891      -1.54682350       1.41778459
H       -0.27700931      -1.85421905       0.46113310
H       -3.08228856       0.97677183      -0.58229054
H       -2.12078638       1.13728174       0.90899044
H       -1.50443081       1.76373804      -0.62466109
18
Frame=11 idx=008115 GeodesicLength=1.1589150277891593 rxn_smarts="[C:1]([N:2]([C:3](=[O:4])[C:5]([C:6]([H:13])([H:14])[H:15])([C:7]([H:16])([H:17])[H:18])[H:12])[H:11])([H:8])([H:9])[H:10]>>[C:1]([N:2]([C:3][O:4][H:15])[H:11])([H:8])([H:9])[H:10].[C:5](=[C:6]([H:13])[H:14])([C:7]([H:16])([H:17])[H:18])[H:12]"
C        2.99015723       0.66427180       0.22699523
N        1.76025545       0.55250290      -0.53548578
C        0.65179305      -0.01659597      -0.06048733
O        0.86324382      -0.97255965       0.75599732
C       -1.42687114      -0.37456591      -0.45098080
C       -1.77161628      -1.49631258       0.32837483
C       -2.07126828       0.95095580      -0.15589101
H        2.88550995       1.39621577       1.02996063
H        3.81676675       0.94084011      -0.42615835
H        3.24823414      -0.28350595       0.69854932
H        1.68488095       1.00400612      -1.42734595
H       -1.27216335      -0.53738153      -1.51781837
H       -2.50734348      -2.21227521      -0.02081811
H       -1.85247801      -1.58740580       1.41187536
H       -0.29144164      -1.89667714       0.41342057
H       -3.07603824       0.97564906      -0.58610272
H       -2.13128498       1.12595859       0.91895822
H       -1.50033594       1.76687959      -0.60304307
18
Frame=12 idx=008115 GeodesicLength=1.2636028222624975 rxn_smarts="[C:1]([N:2]([C:3](=[O:4])[C:5]([C:6]([H:13])([H:14])[H:15])([C:7]([H:16])([H:17])[H:18])[H:12])[H:11])([H:8])([H:9])[H:10]>>[C:1]([N:2]([C:3][O:4][H:15])[H:11])([H:8])([H:9])[H:10].[C:5](=[C:6]([H:13])[H:14])([C:7]([H:16])([H:17])[H:18])[H:12]"
C        2.99109453       0.67808873       0.22832891
N        1.76729242       0.54528915      -0.53993597
C        0.65605566      -0.01083829      -0.05294150
O        0.86849908      -0.96718257       0.76299123
C       -1.41712385      -0.37116943      -0.44646286
C       -1.77413694      -1.50138774       0.32024766
C       -2.07104766       0.94891910      -0.14700719
H        2.88952904       1.45180925       0.99165518
H        3.82965671       0.90580368      -0.42849739
H        3.22997211      -0.24646284       0.75300196
H        1.69551037       0.97234524      -1.44396867
H       -1.26321137      -0.52575920      -1.51521866
H       -2.56457770      -2.16878823      -0.00544194
H       -1.82031958      -1.63034724       1.40250480
H       -0.30735189      -1.93813872       0.36344866
H       -3.06991205       0.97410777      -0.59049094
H       -2.14296807       1.11378559       0.92866669
H       -1.49696082       1.76992574      -0.58088000
18
Frame=13 idx=008115 GeodesicLength=1.3682126887725639 rxn_smarts="[C:1]([N:2]([C:3](=[O:4])[C:5]([C:6]([H:13])([H:14])[H:15])([C:7]([H:16])([H:17])[H:18])[H:12])[H:11])([H:8])([H:9])[H:10]>>[C:1]([N:2]([C:3][O:4][H:15])[H:11])([H:8])([H:9])[H:10].[C:5](=[C:6]([H:13])[H:14])([C:7]([H:16])([H:17])[H:18])[H:12]"
C        2.99134193       0.69254938       0.22993901
N        1.77484000       0.53682719      -0.54497882
C        0.66048654      -0.00627946      -0.04735092
O        0.87302175      -0.96017855       0.77155863
C       -1.40772175      -0.36797318      -0.44211635
C       -1.77688204      -1.50680693       0.31135875
C       -2.07008490       0.94693076      -0.13722476
H        2.89244961       1.50757633       0.94949974
H        3.84240660       0.86959953      -0.42650204
H        3.20940844      -0.20445034       0.80862648
H        1.70800194       0.93726367      -1.46140454
H       -1.25571650      -0.51383144      -1.51295161
H       -2.61854824      -2.12326354       0.01405463
H       -1.78850748      -1.67577339       1.38959926
H       -0.32554887      -1.97958333       0.30949008
H       -3.06335222       0.97352838      -0.59277745
H       -2.15258943       1.10111365       0.93921949
H       -1.49300537       1.77275128      -0.55803956
18
Frame=14 idx=008115 GeodesicLength=1.4727698947834185 rxn_smarts="[C:1]([N:2]([C:3](=[O:4])[C:5]([C:6]([H:13])([H:14])[H:15])([C:7]([H:16])([H:17])[H:18])[H:12])[H:11])([H:8])([H:9])[H:10]>>[C:1]([N:2]([C:3][O:4][H:15])[H:11])([H:8])([H:9])[H:10].[C:5](=[C:6]([H:13])[H:14])([C:7]([H:16])([H:17])[H:18])[H:12]"
C        2.99199862       0.70636695       0.23089665
N        1.78219245       0.52828946      -0.54907483
C        0.66453278      -0.00062979      -0.04059577
O        0.87636083      -0.94947693       0.78447286
C       -1.39833162      -0.36465488      -0.43776159
C       -1.77943327      -1.51247702       0.30156998
C       -2.06970427       0.94469647      -0.12736969
H        2.89832487       1.56121055       0.90353310
H        3.85486415       0.83056741      -0.42231604
H        3.18739692      -0.15942446       0.86268185
H        1.72037225       0.90099452      -1.47738387
H       -1.24775455      -0.50118137      -1.51062339
H       -2.66768390      -2.07679374       0.03708924
H       -1.75737332      -1.72344943       1.37282170
H       -0.34556308      -2.01991230       0.25219041
H       -3.05709041       0.97265876      -0.59521901
H       -2.16317126       1.08765213       0.94967863
H       -1.48993721       1.77556367      -0.53459023
18
Frame=15 idx=008115 GeodesicLength=1.5772910323844767 rxn_smarts="[C:1]([N:2]([C:3](=[O:4])[C:5]([C:6]([H:13])([H:14])[H:15])([C:7]([H:16])([H:17])[H:18])[H:12])[H:11])([H:8])([H:9])[H:10]>>[C:1]([N:2]([C:3][O:4][H:15])[H:11])([H:8])([H:9])[H:10].[C:5](=[C:6]([H:13])[H:14])([C:7]([H:16])([H:17])[H:18])[H:12]"
C        2.99250906       0.72014941       0.23173177
N        1.78984204       0.51873171      -0.55302756
C        0.66839979       0.00504108      -0.03434507
O        0.87839047      -0.93533637       0.80094721
C       -1.38920812      -0.36130139      -0.43355667
C       -1.78194085      -1.51834420       0.29092979
C       -2.06931084       0.94240425      -0.11696657
H        2.90519068       1.61337312       0.85355227
H        3.86697945       0.78975076      -0.41416241
H        3.16344358      -0.10999959       0.91617873
H        1.73395110       0.86170312      -1.49301468
H       -1.24046283      -0.48785545      -1.50849899
H       -2.71223693      -2.02950600       0.06446148
H       -1.72633297      -1.77333484       1.35195663
H       -0.36804222      -2.05952118       0.19021388
H       -3.05091417       0.97216968      -0.59648943
H       -2.17312043       1.07357929       0.96058365
H       -1.48713679       1.77829659      -0.51049402
18
Frame=16 idx=008115 GeodesicLength=1.6818079776169592 rxn_smarts="[C:1]([N:2]([C:3](=[O:4])[C:5]([C:6]([H:13])([H:14])[H:15])([C:7]([H:16])([H:17])[H:18])[H:12])[H:11])([H:8])([H:9])[H:10]>>[C:1]([N:2]([C:3][O:4][H:15])[H:11])([H:8])([H:9])[H:10].[C:5](=[C:6]([H:13])[H:14])([C:7]([H:16])([H:17])[H:18])[H:12]"
C        2.99323705       0.73345412       0.23215026
N        1.79767600       0.50810739      -0.55639918
C        0.67183824       0.01168749      -0.02759577
O        0.87852508      -0.91612234       0.82253869
C       -1.38028571      -0.35766960      -0.42949216
C       -1.78410093      -1.52439155       0.27916539
C       -2.06946766       0.93997173      -0.10604585
H        2.91440351       1.66337198       0.79900854
H        3.87866716       0.74627566      -0.40238066
H        3.13777690      -0.05627836       0.96847968
H        1.74845139       0.81888935      -1.50779571
H       -1.23330352      -0.47335555      -1.50651284
H       -2.75132328      -1.98220211       0.09589197
H       -1.69516819      -1.82541790       1.32640142
H       -0.39291175      -2.09775242       0.12311352
H       -3.04524372       0.97166987      -0.59696866
H       -2.18342909       1.05862364       0.97188151
H       -1.48534149       1.78113860      -0.48544015
