14
Frame=0 idx=006285 GeodesicLength=0.0 rxn_smarts="[C:1]([C@@:2]1([H:10])[C:3]([H:11])([H:12])[O:4][C:5]([H:13])([H:14])[O:6]1)([H:7])([H:8])[H:9]>>[C:1]([C:2]([C:3]([H:10])([H:11])[H:12])=[O:6])([H:7])([H:8])[H:9].[O:4]=[C:5]([H:13])[H:14]"
C       -1.82334230       0.06366307       0.61394742
C       -0.43941033      -0.01038963       0.02917955
C        0.12081298      -1.18451898      -0.53455285
O        1.98557001      -0.22361375       0.20056801
C        1.69056027       0.91892620      -0.34723721
O        0.12191544       1.14184742      -0.34483326
H       -2.13407970      -0.89665558       1.02651836
H       -1.85118940       0.82063819       1.39558393
H       -2.53027217       0.34825474      -0.16601714
H        0.33120585      -0.47134206       0.84291909
H       -0.17976538      -2.13807436      -0.11438823
H        0.77288006      -1.20529230      -1.39325447
H        2.01580074       1.80392145       0.21274601
H        1.91931392       1.03263563      -1.42117921
14
Frame=1 idx=006285 GeodesicLength=0.08790763483776398 rxn_smarts="[C:1]([C@@:2]1([H:10])[C:3]([H:11])([H:12])[O:4][C:5]([H:13])([H:14])[O:6]1)([H:7])([H:8])[H:9]>>[C:1]([C:2]([C:3]([H:10])([H:11])[H:12])=[O:6])([H:7])([H:8])[H:9].[O:4]=[C:5]([H:13])[H:14]"
C       -1.83202440       0.06259747       0.60697705
C       -0.43671017      -0.00540836       0.05102963
C        0.12702736      -1.18371096      -0.51308652
O        2.00939031      -0.23465161       0.16080211
C        1.70800514       0.92274664      -0.35149557
O        0.12371112       1.14528146      -0.32219899
H       -2.13726921      -0.89031773       1.04054156
H       -1.88715780       0.83853551       1.36835511
H       -2.52801214       0.31365410      -0.19420565
H        0.34654801      -0.48468941       0.86104566
H       -0.17068519      -2.13985975      -0.09642347
H        0.71727573      -1.20044835      -1.41614586
H        2.03808596       1.79266641       0.22968188
H        1.92181528       1.06360460      -1.42487695
14
Frame=2 idx=006285 GeodesicLength=0.1757314205531963 rxn_smarts="[C:1]([C@@:2]1([H:10])[C:3]([H:11])([H:12])[O:4][C:5]([H:13])([H:14])[O:6]1)([H:7])([H:8])[H:9]>>[C:1]([C:2]([C:3]([H:10])([H:11])[H:12])=[O:6])([H:7])([H:8])[H:9].[O:4]=[C:5]([H:13])[H:14]"
C       -1.84043761       0.06130962       0.59947316
C       -0.43386341      -0.00043759       0.07364687
C        0.13374873      -1.18243229      -0.49191627
O        2.03228806      -0.24492090       0.11906079
C        1.72539988       0.92686195      -0.35625206
O        0.12563088       1.14879696      -0.29866688
H       -2.14122069      -0.88367185       1.05329697
H       -1.92293850       0.85511503       1.33971223
H       -2.52389332       0.27906249      -0.22212218
H        0.36239740      -0.49846358       0.87931465
H       -0.16118034      -2.14115899      -0.07869340
H        0.65911777      -1.19621551      -1.43499037
H        2.06111864       1.78047257       0.24626167
H        1.92383252       1.09568208      -1.42812518
14
Frame=3 idx=006285 GeodesicLength=0.2634797533348285 rxn_smarts="[C:1]([C@@:2]1([H:10])[C:3]([H:11])([H:12])[O:4][C:5]([H:13])([H:14])[O:6]1)([H:7])([H:8])[H:9]>>[C:1]([C:2]([C:3]([H:10])([H:11])[H:12])=[O:6])([H:7])([H:8])[H:9].[O:4]=[C:5]([H:13])[H:14]"
C       -1.84855025       0.05984501       0.59143868
C       -0.43094367       0.00448877       0.09694178
C        0.14090937      -1.18071448      -0.47112797
O        2.05407040      -0.25435768       0.07525042
C        1.74267246       0.93129790      -0.36150074
O        0.12763489       1.15234391      -0.27434009
H       -2.14596490      -0.87673168       1.06473227
H       -1.95829365       0.87039360       1.30971668
H       -2.51796671       0.24468824      -0.24967638
H        0.37867483      -0.51270375       0.89761902
H       -0.15121686      -2.14199051      -0.06116648
H        0.59876647      -1.19278288      -1.44960494
H        2.08479543       1.76726078       0.26251648
H        1.92541219       1.12896278      -1.43079874
14
Frame=4 idx=006285 GeodesicLength=0.351201157139365 rxn_smarts="[C:1]([C@@:2]1([H:10])[C:3]([H:11])([H:12])[O:4][C:5]([H:13])([H:14])[O:6]1)([H:7])([H:8])[H:9]>>[C:1]([C:2]([C:3]([H:10])([H:11])[H:12])=[O:6])([H:7])([H:8])[H:9].[O:4]=[C:5]([H:13])[H:14]"
C       -1.85634118       0.05825103       0.58288848
C       -0.42802822       0.00933613       0.12081390
C        0.14843939      -1.17859992      -0.45080396
O        2.07454653      -0.26290261       0.02924662
C        1.75976807       0.93607959      -0.36722337
O        0.12968485       1.15587811      -0.24932126
H       -2.15150680      -0.86949410       1.07485825
H       -1.99301840       0.88446247       1.27839357
H       -2.51032668       0.21065816      -0.27678512
H        0.39530342      -0.52743574       0.91584680
H       -0.14076342      -2.14238177      -0.04381158
H        0.53658806      -1.19035368      -1.45986518
H        2.10903920       1.75292511       0.27850605
H        1.92661519       1.16357723      -1.43274318
14
Frame=5 idx=006285 GeodesicLength=0.43878677675004346 rxn_smarts="[C:1]([C@@:2]1([H:10])[C:3]([H:11])([H:12])[O:4][C:5]([H:13])([H:14])[O:6]1)([H:7])([H:8])[H:9]>>[C:1]([C:2]([C:3]([H:10])([H:11])[H:12])=[O:6])([H:7])([H:8])[H:9].[O:4]=[C:5]([H:13])[H:14]"
C       -1.86375605       0.05658420       0.57383365
C       -0.42520521       0.01407509       0.14509478
C        0.15629729      -1.17610414      -0.43101233
O        2.09345232      -0.27044481      -0.01895883
C        1.77658053       0.94120877      -0.37341048
O        0.13171309       1.15933065      -0.22380727
H       -2.15782280      -0.86198555       1.08359643
H       -2.02681496       0.89728576       1.24593235
H       -2.50105635       0.17726877      -0.30334144
H        0.41213638      -0.54265506       0.93389828
H       -0.12976853      -2.14233242      -0.02657037
H        0.47305840      -1.18909048      -1.46565970
H        2.13365268       1.73733564       0.29423319
H        1.92753320       1.19952359      -1.43382826
14
Frame=6 idx=006285 GeodesicLength=0.5263400102141551 rxn_smarts="[C:1]([C@@:2]1([H:10])[C:3]([H:11])([H:12])[O:4][C:5]([H:13])([H:14])[O:6]1)([H:7])([H:8])[H:9]>>[C:1]([C:2]([C:3]([H:10])([H:11])[H:12])=[O:6])([H:7])([H:8])[H:9].[O:4]=[C:5]([H:13])[H:14]"
C       -1.87080609       0.05489015       0.56431282
C       -0.42256682       0.01867687       0.16963915
C        0.16441203      -1.17329307      -0.41181578
O        2.11059743      -0.27690382      -0.06950769
C        1.79308987       0.94671461      -0.38003431
O        0.13367485       1.16267692      -0.19792918
H       -2.16491089      -0.85421668       1.09097603
H       -2.05950814       0.90901034       1.21239671
H       -2.49034591       0.14460534      -0.32924705
H        0.42908469      -0.55833542       0.95165589
H       -0.11820207      -2.14188672      -0.00939670
H        0.40860069      -1.18926204      -1.46695115
H        2.15860204       1.72036755       0.30975740
H        1.92827832       1.23695595      -1.43385615
14
Frame=7 idx=006285 GeodesicLength=0.6138198239869834 rxn_smarts="[C:1]([C@@:2]1([H:10])[C:3]([H:11])([H:12])[O:4][C:5]([H:13])([H:14])[O:6]1)([H:7])([H:8])[H:9]>>[C:1]([C:2]([C:3]([H:10])([H:11])[H:12])=[O:6])([H:7])([H:8])[H:9].[O:4]=[C:5]([H:13])[H:14]"
C       -1.87747762       0.05321657       0.55436027
C       -0.42020586       0.02312682       0.19425651
C        0.17273585      -1.17018890      -0.39326805
O        2.12572995      -0.28215957      -0.12245553
C        1.80923976       0.95259733      -0.38707012
O        0.13550750       1.16587749      -0.17187551
H       -2.17271237      -0.84619542       1.09702132
H       -2.09089236       0.91970433       1.17793364
H       -2.47837734       0.11280892      -0.35440517
H        0.44601039      -0.57442798       0.96902254
H       -0.10602610      -2.14104681       0.00776175
H        0.34371105      -1.19106570      -1.46373736
H        2.18376972       1.70184009       0.32510104
H        1.92898743       1.27591284      -1.43264534
14
Frame=8 idx=006285 GeodesicLength=0.7013104991544078 rxn_smarts="[C:1]([C@@:2]1([H:10])[C:3]([H:11])([H:12])[O:4][C:5]([H:13])([H:14])[O:6]1)([H:7])([H:8])[H:9]>>[C:1]([C:2]([C:3]([H:10])([H:11])[H:12])=[O:6])([H:7])([H:8])[H:9].[O:4]=[C:5]([H:13])[H:14]"
C       -1.88380523       0.05160717       0.54402625
C       -0.41821524       0.02741897       0.21876924
C        0.18123289      -1.16683276      -0.37541264
O        2.13863422      -0.28609923      -0.17789116
C        1.82502541       0.95885994      -0.39449628
O        0.13715703       1.16892883      -0.14580608
H       -2.18118669      -0.83792568       1.10182481
H       -2.12087348       0.92949841       1.14265233
H       -2.46538696       0.08193041      -0.37873185
H        0.46279361      -0.59088670       0.98592019
H       -0.09319749      -2.13984423       0.02495465
H        0.27887082      -1.19468467      -1.45607653
H        2.20910998       1.68156125       0.34026983
H        1.92984113       1.31646829      -1.43000278
14
Frame=9 idx=006285 GeodesicLength=0.7886806264019853 rxn_smarts="[C:1]([C@@:2]1([H:10])[C:3]([H:11])([H:12])[O:4][C:5]([H:13])([H:14])[O:6]1)([H:7])([H:8])[H:9]>>[C:1]([C:2]([C:3]([H:10])([H:11])[H:12])=[O:6])([H:7])([H:8])[H:9].[O:4]=[C:5]([H:13])[H:14]"
C       -1.88977537       0.05010258       0.53334026
C       -0.41667432       0.03156716       0.24297655
C        0.18988236      -1.16320913      -0.35827151
O        2.14902424      -0.28854889      -0.23581304
C        1.84038845       0.96547359      -0.40228930
O        0.13855526       1.17180707      -0.11990443
H       -2.19022818      -0.82942330       1.10540151
H       -2.14929869       0.93842346       1.10676040
H       -2.45156036       0.05209567      -0.40217017
H        0.47929009      -0.60761374       1.00229877
H       -0.07966985      -2.13824364       0.04223692
H        0.21459274      -1.20025705      -1.44404454
H        2.23449268       1.65929053       0.35523200
H        1.93098096       1.35853570      -1.42575341
14
Frame=10 idx=006285 GeodesicLength=0.8760573275396605 rxn_smarts="[C:1]([C@@:2]1([H:10])[C:3]([H:11])([H:12])[O:4][C:5]([H:13])([H:14])[O:6]1)([H:7])([H:8])[H:9]>>[C:1]([C:2]([C:3]([H:10])([H:11])[H:12])=[O:6])([H:7])([H:8])[H:9].[O:4]=[C:5]([H:13])[H:14]"
C       -1.89546720       0.04872694       0.52235734
C       -0.41566571       0.03558766       0.26673378
C        0.19865255      -1.15935955      -0.34183984
O        2.15667866      -0.28937257      -0.29633961
C        1.85537099       0.97243078      -0.41044060
O        0.13966078       1.17455047      -0.09428373
H       -2.19982311      -0.82070943       1.10784819
H       -2.17618330       0.94662393       1.07034732
H       -2.43715053       0.02327866      -0.42466751
H        0.49540750      -0.62453376       1.01812291
H       -0.06538788      -2.13627451       0.05967665
H        0.15132383      -1.20794332      -1.42775811
H        2.25994864       1.63479952       0.36991622
H        1.93263477       1.40219515      -1.41967301
14
Frame=11 idx=006285 GeodesicLength=0.9633872521924989 rxn_smarts="[C:1]([C@@:2]1([H:10])[C:3]([H:11])([H:12])[O:4][C:5]([H:13])([H:14])[O:6]1)([H:7])([H:8])[H:9]>>[C:1]([C:2]([C:3]([H:10])([H:11])[H:12])=[O:6])([H:7])([H:8])[H:9].[O:4]=[C:5]([H:13])[H:14]"
C       -1.90091498       0.04749856       0.51110256
C       -0.41524982       0.03951570       0.28991063
C        0.20753195      -1.15526224      -0.32609210
O        2.16130031      -0.28837456      -0.35952495
C        1.86996484       0.97969135      -0.41894424
O        0.14042766       1.17718234      -0.06903576
H       -2.20990011      -0.81179843       1.10921898
H       -2.20152102       0.95416275       1.03353604
H       -2.42233607      -0.00451654      -0.44622010
H        0.51105236      -0.64154249       1.03339745
H       -0.05028720      -2.13390195       0.07733861
H        0.08951149      -1.21782228      -1.40733793
H        2.28544347       1.60779185       0.38420779
H        1.93497712       1.44737594      -1.41155698
14
Frame=12 idx=006285 GeodesicLength=1.0507485742620295 rxn_smarts="[C:1]([C@@:2]1([H:10])[C:3]([H:11])([H:12])[O:4][C:5]([H:13])([H:14])[O:6]1)([H:7])([H:8])[H:9]>>[C:1]([C:2]([C:3]([H:10])([H:11])[H:12])=[O:6])([H:7])([H:8])[H:9].[O:4]=[C:5]([H:13])[H:14]"
C       -1.90619916       0.04642662       0.49959732
C       -0.41547987       0.04338898       0.31244169
C        0.21652666      -1.15090547      -0.31097483
O        2.16260566      -0.28535020      -0.42545490
C        1.88420599       0.98721227      -0.42781742
O        0.14082832       1.17975911      -0.04416721
H       -2.22045111      -0.80271473       1.10958329
H       -2.22541923       0.96112693       0.99638452
H       -2.40729053      -0.03133806      -0.46685908
H        0.52617157      -0.65856518       1.04816921
H       -0.03428207      -2.13111758       0.09529409
H        0.02956080      -1.22991449      -1.38290825
H        2.31102187       1.57795995       0.39791136
H        1.93820110       1.49403185      -1.40119979
14
Frame=13 idx=006285 GeodesicLength=1.1380092572546532 rxn_smarts="[C:1]([C@@:2]1([H:10])[C:3]([H:11])([H:12])[O:4][C:5]([H:13])([H:14])[O:6]1)([H:7])([H:8])[H:9]>>[C:1]([C:2]([C:3]([H:10])([H:11])[H:12])=[O:6])([H:7])([H:8])[H:9].[O:4]=[C:5]([H:13])[H:14]"
C       -1.91133008       0.04551370       0.48782446
C       -0.41638020       0.04725650       0.33429989
C        0.22566173      -1.14621854      -0.29640815
O        2.16021713      -0.28002760      -0.49410423
C        1.89805708       0.99491724      -0.43707435
O        0.14084001       1.18231649      -0.01961295
H       -2.23140965      -0.79348239       1.10892034
H       -2.24792355       0.96752278       0.95897712
H       -2.39206550      -0.05718671      -0.48667298
H        0.54071238      -0.67549969       1.06252799
H       -0.01729066      -2.12784399       0.11358360
H       -0.02812283      -1.24413550      -1.35458469
H        2.33665100       1.54496674       0.41076254
H        1.94238315       1.54190098      -1.38843857
14
Frame=14 idx=006285 GeodesicLength=1.225313000858939 rxn_smarts="[C:1]([C@@:2]1([H:10])[C:3]([H:11])([H:12])[O:4][C:5]([H:13])([H:14])[O:6]1)([H:7])([H:8])[H:9]>>[C:1]([C:2]([C:3]([H:10])([H:11])[H:12])=[O:6])([H:7])([H:8])[H:9].[O:4]=[C:5]([H:13])[H:14]"
C       -1.91640798       0.04475104       0.47577684
C       -0.41798987       0.05115983       0.35552501
C        0.23496229      -1.14118307      -0.28227039
O        2.15377360      -0.27214609      -0.56552674
C        1.91156509       1.00274538      -0.44677871
O        0.14046014       1.18493803       0.00474572
H       -2.24284774      -0.78418561       1.10719407
H       -2.26920451       0.97340306       0.92134748
H       -2.37674587      -0.08208345      -0.50576232
H        0.55466941      -0.69228445       1.07659231
H        0.00080872      -2.12407879       0.13229838
H       -0.08319419      -1.26042325      -1.32245379
H        2.36240607       1.50849921       0.42238325
H        1.94774483       1.59088815      -1.37307110
14
Frame=15 idx=006285 GeodesicLength=1.3126383530121453 rxn_smarts="[C:1]([C@@:2]1([H:10])[C:3]([H:11])([H:12])[O:4][C:5]([H:13])([H:14])[O:6]1)([H:7])([H:8])[H:9]>>[C:1]([C:2]([C:3]([H:10])([H:11])[H:12])=[O:6])([H:7])([H:8])[H:9].[O:4]=[C:5]([H:13])[H:14]"
C       -1.92145935       0.04412520       0.46340846
C       -0.42031866       0.05513757       0.37622114
C        0.24447791      -1.13572291      -0.26842468
O        2.14281686      -0.26137657      -0.63963157
C        1.92469909       1.01060480      -0.45699064
O        0.13970105       1.18768011       0.02915365
H       -2.25478324      -0.77488005       1.10432499
H       -2.28938148       0.97877606       0.88348486
H       -2.36127929      -0.10604407      -0.52428552
H        0.56804450      -0.70886922       1.09052534
H        0.02012718      -2.11976541       0.15146463
H       -0.13529953      -1.27856700      -1.28660160
H        2.38828513       1.46823510       0.43231311
H        1.95436984       1.64066639      -1.35496218
14
Frame=16 idx=006285 GeodesicLength=1.3999945287088154 rxn_smarts="[C:1]([C@@:2]1([H:10])[C:3]([H:11])([H:12])[O:4][C:5]([H:13])([H:14])[O:6]1)([H:7])([H:8])[H:9]>>[C:1]([C:2]([C:3]([H:10])([H:11])[H:12])=[O:6])([H:7])([H:8])[H:9].[O:4]=[C:5]([H:13])[H:14]"
C       -1.92650009       0.04362070       0.45065451
C       -0.42336967       0.05921449       0.39655748
C        0.25426629      -1.12975896      -0.25470235
O        2.12683602      -0.24736809      -0.71623407
C        1.93741181       1.01838638      -0.46779738
O        0.13859766       1.19059089       0.05395345
H       -2.26726987      -0.76565195       1.10015698
H       -2.30856271       0.98364094       0.84536035
H       -2.34554054      -0.12904998      -0.54243931
H        0.58085928      -0.72523002       1.10452621
H        0.04078316      -2.11485273       0.17110253
H       -0.18410373      -1.29829547      -1.24710248
H        2.41426599       1.42390152       0.43997395
H        1.96232642       1.69085229      -1.33400985
