10
Frame=0 idx=007768 GeodesicLength=0.0 rxn_smarts="[O:1]=[C:2]([n:3]1[c:4]([H:9])[n:5][c:6]([H:10])[n:7]1)[H:8]>>[O+:1]#[C-:2].[n:3]1[c:4]([H:9])[n:5][c:6]([H:10])[n:7]1[H:8]"
O        3.10566432      -0.17204975       0.27713695
C        2.05735621      -0.59466703       0.35438056
N        0.41531416       0.34921118      -0.09612551
C       -0.50271537       1.23139614      -0.47201443
N       -1.74102346       0.74242192      -0.38354099
C       -1.53107125      -0.49849474       0.07109623
N       -0.24808367      -0.76094980       0.25186638
H        1.01133736      -1.30557471       0.53334746
H       -0.25670328       2.22641080      -0.80778026
H       -2.31007502      -1.21770400       0.27163361
10
Frame=1 idx=007768 GeodesicLength=0.0404010065646046 rxn_smarts="[O:1]=[C:2]([n:3]1[c:4]([H:9])[n:5][c:6]([H:10])[n:7]1)[H:8]>>[O+:1]#[C-:2].[n:3]1[c:4]([H:9])[n:5][c:6]([H:10])[n:7]1[H:8]"
O        3.10907640      -0.15728201       0.28714857
C        2.06479024      -0.59770438       0.33473968
N        0.41460213       0.34394668      -0.09881436
C       -0.50231179       1.23216029      -0.46458624
N       -1.74058246       0.74208798      -0.38798583
C       -1.53499470      -0.49436485       0.08126542
N       -0.25136308      -0.77031566       0.23495209
H        1.00794364      -1.30798221       0.54795356
H       -0.25128261       2.22354720      -0.80736468
H       -2.31587778      -1.21409304       0.27269178
10
Frame=2 idx=007768 GeodesicLength=0.08067630585585583 rxn_smarts="[O:1]=[C:2]([n:3]1[c:4]([H:9])[n:5][c:6]([H:10])[n:7]1)[H:8]>>[O+:1]#[C-:2].[n:3]1[c:4]([H:9])[n:5][c:6]([H:10])[n:7]1[H:8]"
O        3.11117891      -0.14101530       0.30397836
C        2.07202144      -0.59921488       0.31853584
N        0.41450232       0.33579455      -0.11031100
C       -0.50148089       1.23102290      -0.46252567
N       -1.74055410       0.74415759      -0.38515645
C       -1.53826355      -0.49124179       0.08891612
N       -0.25468612      -0.77916517       0.21885950
H        1.00490424      -1.31247611       0.55512725
H       -0.24613236       2.22114708      -0.80574147
H       -2.32148991      -1.20900888       0.27831752
10
Frame=3 idx=007768 GeodesicLength=0.12098467172819427 rxn_smarts="[O:1]=[C:2]([n:3]1[c:4]([H:9])[n:5][c:6]([H:10])[n:7]1)[H:8]>>[O+:1]#[C-:2].[n:3]1[c:4]([H:9])[n:5][c:6]([H:10])[n:7]1[H:8]"
O        3.11251095      -0.12452517       0.32116327
C        2.07903111      -0.59888748       0.30686199
N        0.41452942       0.32676471      -0.12425458
C       -0.50035327       1.22932579      -0.46184456
N       -1.74052744       0.74714758      -0.37957506
C       -1.54116232      -0.48856721       0.09555807
N       -0.25814117      -0.78804139       0.20259886
H        1.00184393      -1.31838720       0.55834475
H       -0.24075959       2.21857859      -0.80437549
H       -2.32697163      -1.20340822       0.28552274
10
Frame=4 idx=007768 GeodesicLength=0.16137112854324237 rxn_smarts="[O:1]=[C:2]([n:3]1[c:4]([H:9])[n:5][c:6]([H:10])[n:7]1)[H:8]>>[O+:1]#[C-:2].[n:3]1[c:4]([H:9])[n:5][c:6]([H:10])[n:7]1[H:8]"
O        3.11277821      -0.10721508       0.34107347
C        2.08604636      -0.59759938       0.29648844
N        0.41458865       0.31717171      -0.13981611
C       -0.49896795       1.22725169      -0.46210993
N       -1.74039249       0.75070761      -0.37224794
C       -1.54374112      -0.48609061       0.10186185
N       -0.26173791      -0.79700050       0.18598398
H        0.99888129      -1.32584045       0.55747467
H       -0.23514405       2.21572111      -0.80368527
H       -2.33231099      -1.19710610       0.29497684
10
Frame=5 idx=007768 GeodesicLength=0.2017721082005439 rxn_smarts="[O:1]=[C:2]([n:3]1[c:4]([H:9])[n:5][c:6]([H:10])[n:7]1)[H:8]>>[O+:1]#[C-:2].[n:3]1[c:4]([H:9])[n:5][c:6]([H:10])[n:7]1[H:8]"
O        3.11175414      -0.08879793       0.36185452
C        2.09285265      -0.59520256       0.28828572
N        0.41475746       0.30585667      -0.15959790
C       -0.49708062       1.22432381      -0.46416866
N       -1.73987618       0.75448495      -0.36423514
C       -1.54600530      -0.48389771       0.10751428
N       -0.26556900      -0.80640108       0.16867110
H        0.99566246      -1.33389583       0.55524425
H       -0.22894111       2.21340935      -0.80054323
H       -2.33755449      -1.18987968       0.30697506
10
Frame=6 idx=007768 GeodesicLength=0.24224776788165428 rxn_smarts="[O:1]=[C:2]([n:3]1[c:4]([H:9])[n:5][c:6]([H:10])[n:7]1)[H:8]>>[O+:1]#[C-:2].[n:3]1[c:4]([H:9])[n:5][c:6]([H:10])[n:7]1[H:8]"
O        3.10867164      -0.06852702       0.38731505
C        2.09953627      -0.59169124       0.28087438
N        0.41490412       0.29335900      -0.18235187
C       -0.49473285       1.22069760      -0.46783744
N       -1.73896343       0.75882327      -0.35451264
C       -1.54788534      -0.48164400       0.11351376
N       -0.26963249      -0.81636721       0.14995961
H        0.99263285      -1.34406410       0.54776456
H       -0.22204198       2.21079695      -0.79752176
H       -2.34248879      -1.18138325       0.32279636
10
Frame=7 idx=007768 GeodesicLength=0.2832557092127187 rxn_smarts="[O:1]=[C:2]([n:3]1[c:4]([H:9])[n:5][c:6]([H:10])[n:7]1)[H:8]>>[O+:1]#[C-:2].[n:3]1[c:4]([H:9])[n:5][c:6]([H:10])[n:7]1[H:8]"
O        3.10211608      -0.04406078       0.41667366
C        2.10558578      -0.58634334       0.27584784
N        0.41501613       0.27627717      -0.21536022
C       -0.49120914       1.21444042      -0.47748268
N       -1.73707362       0.76314477      -0.34520089
C       -1.54945629      -0.47925098       0.11986209
N       -0.27434909      -0.82774855       0.12995458
H        0.98952522      -1.35582596       0.53693480
H       -0.21278947       2.20961155      -0.78651918
H       -2.34736559      -1.17024430       0.34529000
10
Frame=8 idx=007768 GeodesicLength=0.32432751870769133 rxn_smarts="[O:1]=[C:2]([n:3]1[c:4]([H:9])[n:5][c:6]([H:10])[n:7]1)[H:8]>>[O+:1]#[C-:2].[n:3]1[c:4]([H:9])[n:5][c:6]([H:10])[n:7]1[H:8]"
O        3.08970587      -0.01492994       0.45680684
C        2.11070843      -0.57854866       0.27185437
N        0.41470900       0.25670018      -0.25389626
C       -0.48673070       1.20714514      -0.48894321
N       -1.73394343       0.76876292      -0.33211038
C       -1.55014714      -0.47613457       0.12834097
N       -0.27957836      -0.84040926       0.10716779
H        0.98746911      -1.37259570       0.51339114
H       -0.20119171       2.20636336      -0.77776200
H       -2.35100107      -1.15635348       0.37515075
10
Frame=9 idx=007768 GeodesicLength=0.365200298460104 rxn_smarts="[O:1]=[C:2]([n:3]1[c:4]([H:9])[n:5][c:6]([H:10])[n:7]1)[H:8]>>[O+:1]#[C-:2].[n:3]1[c:4]([H:9])[n:5][c:6]([H:10])[n:7]1[H:8]"
O        3.07835382       0.01132307       0.48411069
C        2.11553248      -0.57121131       0.26679512
N        0.41375257       0.23903284      -0.28543003
C       -0.48224333       1.20033375      -0.49795414
N       -1.73038714       0.77292024      -0.32323578
C       -1.55102771      -0.47376891       0.13444909
N       -0.28512236      -0.85162234       0.08954781
H        0.98438784      -1.38504974       0.50100350
H       -0.18868989       2.20293047      -0.76605572
H       -2.35455628      -1.14488807       0.39676945
10
Frame=10 idx=007768 GeodesicLength=0.40624975861695267 rxn_smarts="[O:1]=[C:2]([n:3]1[c:4]([H:9])[n:5][c:6]([H:10])[n:7]1)[H:8]>>[O+:1]#[C-:2].[n:3]1[c:4]([H:9])[n:5][c:6]([H:10])[n:7]1[H:8]"
O        3.06861704       0.03426236       0.50636057
C        2.12091068      -0.56442080       0.26046499
N        0.41257261       0.22488210      -0.30842276
C       -0.47817065       1.19580181      -0.50091744
N       -1.72705694       0.77719886      -0.31364540
C       -1.55198809      -0.47173754       0.14015963
N       -0.29061420      -0.86153969       0.07435160
H        0.98114505      -1.39645070       0.49177327
H       -0.17730071       2.19819813      -0.76149523
H       -2.35811479      -1.13619453       0.41137078
10
Frame=11 idx=007768 GeodesicLength=0.44759744631495113 rxn_smarts="[O:1]=[C:2]([n:3]1[c:4]([H:9])[n:5][c:6]([H:10])[n:7]1)[H:8]>>[O+:1]#[C-:2].[n:3]1[c:4]([H:9])[n:5][c:6]([H:10])[n:7]1[H:8]"
O        3.05769723       0.05754320       0.52813608
C        2.12617079      -0.55698498       0.25401537
N        0.41113605       0.21059420      -0.33103471
C       -0.47370233       1.19129602      -0.50307550
N       -1.72324873       0.78169280      -0.30335043
C       -1.55281463      -0.46972063       0.14605018
N       -0.29635493      -0.87139506       0.05995341
H        0.97794762      -1.40813549       0.48220882
H       -0.16520012       2.19286928      -0.75784430
H       -2.36163096      -1.12775935       0.42494108
10
Frame=12 idx=007768 GeodesicLength=0.48931981432006216 rxn_smarts="[O:1]=[C:2]([n:3]1[c:4]([H:9])[n:5][c:6]([H:10])[n:7]1)[H:8]>>[O+:1]#[C-:2].[n:3]1[c:4]([H:9])[n:5][c:6]([H:10])[n:7]1[H:8]"
O        3.04521430       0.08250923       0.54751333
C        2.13094562      -0.54857371       0.24771200
N        0.40924594       0.19466405      -0.35555763
C       -0.46849532       1.18572434      -0.50656937
N       -1.71868247       0.78601597      -0.29379050
C       -1.55366966      -0.46772429       0.15175681
N       -0.30255433      -0.88152995       0.04698420
H        0.97452134      -1.41933139       0.47444677
H       -0.15103073       2.18724325      -0.75030025
H       -2.36549470      -1.11899749       0.43780464
10
Frame=13 idx=007768 GeodesicLength=0.531452890791715 rxn_smarts="[O:1]=[C:2]([n:3]1[c:4]([H:9])[n:5][c:6]([H:10])[n:7]1)[H:8]>>[O+:1]#[C-:2].[n:3]1[c:4]([H:9])[n:5][c:6]([H:10])[n:7]1[H:8]"
O        3.03059523       0.10825456       0.56861130
C        2.13540033      -0.53916970       0.24145299
N        0.40705153       0.17856019      -0.38000982
C       -0.46275102       1.18027141      -0.50889522
N       -1.71337804       0.79092224      -0.28229470
C       -1.55419931      -0.46571300       0.15785499
N       -0.30897175      -0.89187359       0.03376029
H        0.97136547      -1.43169265       0.46399397
H       -0.13608004       2.18056401      -0.74541371
H       -2.36903240      -1.11012347       0.45093991
10
Frame=14 idx=007768 GeodesicLength=0.5742547934143694 rxn_smarts="[O:1]=[C:2]([n:3]1[c:4]([H:9])[n:5][c:6]([H:10])[n:7]1)[H:8]>>[O+:1]#[C-:2].[n:3]1[c:4]([H:9])[n:5][c:6]([H:10])[n:7]1[H:8]"
O        3.01396986       0.13641060       0.58678217
C        2.13907541      -0.52850007       0.23533158
N        0.40422745       0.16040637      -0.40665369
C       -0.45608599       1.17345081      -0.51288658
N       -1.70708686       0.79563052      -0.27170524
C       -1.55483501      -0.46383055       0.16332780
N       -0.31591965      -0.90275073       0.02177992
H        0.96789420      -1.44343345       0.45568370
H       -0.11824155       2.17323328      -0.73539204
H       -2.37299787      -1.10061677       0.46373239
10
Frame=15 idx=007768 GeodesicLength=0.6177981003881566 rxn_smarts="[O:1]=[C:2]([n:3]1[c:4]([H:9])[n:5][c:6]([H:10])[n:7]1)[H:8]>>[O+:1]#[C-:2].[n:3]1[c:4]([H:9])[n:5][c:6]([H:10])[n:7]1[H:8]"
O        2.99521218       0.16568013       0.60520837
C        2.14223809      -0.51670587       0.22920398
N        0.40098707       0.14175222      -0.43340317
C       -0.44876829       1.16638973      -0.51637443
N       -1.69995428       0.80061937      -0.26021855
C       -1.55531342      -0.46207904       0.16858682
N       -0.32315227      -0.91396591       0.00973970
H        0.96450881      -1.45577766       0.44619502
H       -0.09897720       2.16488955      -0.72583744
H       -2.37678069      -1.09080251       0.47689969
10
Frame=16 idx=007768 GeodesicLength=0.662220688955608 rxn_smarts="[O:1]=[C:2]([n:3]1[c:4]([H:9])[n:5][c:6]([H:10])[n:7]1)[H:8]>>[O+:1]#[C-:2].[n:3]1[c:4]([H:9])[n:5][c:6]([H:10])[n:7]1[H:8]"
O        2.97469265       0.19622972       0.62227529
C        2.14484271      -0.50380840       0.22294620
N        0.39726641       0.12238740      -0.46025204
C       -0.44076561       1.15881335      -0.51983680
N       -1.69197985       0.80566205      -0.24856262
C       -1.55581496      -0.46050243       0.17332508
N       -0.33072543      -0.92547384      -0.00179902
H        0.96102546      -1.46811499       0.43712346
H       -0.07787930       2.15555086      -0.71495724
H       -2.38066209      -1.08074372       0.48973770
