16
Frame=0 idx=009961 GeodesicLength=0.0 rxn_smarts="[C:1]([C:2]#[C:3][C:4]([N:5]1[C:6]([H:13])([H:14])[C:7]1([H:15])[H:16])([H:11])[H:12])([H:8])([H:9])[H:10]>>[C:1]([C:2](=[C:3])[C:4]([N:5]1[C:6]([H:13])([H:14])[C:7]1([H:15])[H:16])([H:11])[H:12])([H:8])([H:9])[H:10]"
C        2.71397409      -0.16880615       0.30529595
C        1.66871602       0.32147882      -0.59113211
C        0.86392904       0.90167028      -1.35375035
C       -0.01300632      -0.38197732      -0.56585393
N       -0.82078243       0.17349923       0.48449497
C       -2.16662643      -0.37186198       0.58348881
C       -1.93543564       0.99238176       0.05656801
H        3.57726754       0.48957801       0.20368225
H        3.02518968      -1.18455968       0.05634225
H        2.37903872      -0.13377872       1.34306843
H       -0.56227437      -0.68793132      -1.46154465
H        0.45613991      -1.29678159      -0.18390954
H       -2.53843904      -0.52100559       1.58999073
H       -2.45356367      -1.13803151      -0.13139317
H       -2.05422531       1.14900723      -1.01056988
H       -2.13990184       1.85711856       0.67522228
16
Frame=1 idx=009961 GeodesicLength=0.04589456985876913 rxn_smarts="[C:1]([C:2]#[C:3][C:4]([N:5]1[C:6]([H:13])([H:14])[C:7]1([H:15])[H:16])([H:11])[H:12])([H:8])([H:9])[H:10]>>[C:1]([C:2](=[C:3])[C:4]([N:5]1[C:6]([H:13])([H:14])[C:7]1([H:15])[H:16])([H:11])[H:12])([H:8])([H:9])[H:10]"
C        2.72210445      -0.15482741       0.31090974
C        1.67034963       0.30604060      -0.59389749
C        0.87142576       0.87485622      -1.36896942
C       -0.02095044      -0.39693266      -0.57257942
N       -0.82218818       0.15657948       0.48518705
C       -2.17495454      -0.37153318       0.57872075
C       -1.92579283       0.99558515       0.06762174
H        3.57826499       0.51100771       0.19808554
H        3.04320497      -1.17158800       0.07914693
H        2.38561147      -0.10669942       1.34762598
H       -0.57998496      -0.68982162      -1.46730596
H        0.43619638      -1.32212073      -0.20148094
H       -2.54891409      -0.52740231       1.58338831
H       -2.47295203      -1.12502874      -0.14509830
H       -2.04311505       1.16602704      -0.99766835
H       -2.11830552       1.85585787       0.69631383
16
Frame=2 idx=009961 GeodesicLength=0.09183912723669622 rxn_smarts="[C:1]([C:2]#[C:3][C:4]([N:5]1[C:6]([H:13])([H:14])[C:7]1([H:15])[H:16])([H:11])[H:12])([H:8])([H:9])[H:10]>>[C:1]([C:2](=[C:3])[C:4]([N:5]1[C:6]([H:13])([H:14])[C:7]1([H:15])[H:16])([H:11])[H:12])([H:8])([H:9])[H:10]"
C        2.73017017      -0.14022189       0.31650621
C        1.67191760       0.28987470      -0.59628792
C        0.87914610       0.84713719      -1.38389132
C       -0.02912720      -0.41239693      -0.57940517
N       -0.82375895       0.13884155       0.48591051
C       -2.18353802      -0.37115273       0.57366285
C       -1.91549080       0.99853319       0.07910323
H        3.57917759       0.53253082       0.19119519
H        3.06093327      -1.15793627       0.10313149
H        2.39238364      -0.07775067       1.35202293
H       -0.59780490      -0.69139837      -1.47321468
H        0.41529775      -1.34811731      -0.21967826
H       -2.56001407      -0.53396308       1.57627707
H       -2.49269423      -1.11120160      -0.15935256
H       -2.03082876       1.18333943      -0.98412667
H       -2.09576922       1.85388198       0.71814710
16
Frame=3 idx=009961 GeodesicLength=0.1378410193495954 rxn_smarts="[C:1]([C:2]#[C:3][C:4]([N:5]1[C:6]([H:13])([H:14])[C:7]1([H:15])[H:16])([H:11])[H:12])([H:8])([H:9])[H:10]>>[C:1]([C:2](=[C:3])[C:4]([N:5]1[C:6]([H:13])([H:14])[C:7]1([H:15])[H:16])([H:11])[H:12])([H:8])([H:9])[H:10]"
C        2.73820661      -0.12499244       0.32203826
C        1.67340291       0.27301092      -0.59815471
C        0.88711671       0.81850599      -1.39840437
C       -0.03754304      -0.42835538      -0.58626912
N       -0.82556866       0.12028332       0.48668081
C       -2.19241766      -0.37069990       0.56829410
C       -1.90454786       1.00117748       0.09100089
H        3.58004603       0.55406448       0.18291142
H        3.07838772      -1.14355182       0.12821525
H        2.39946798      -0.04692449       1.35618538
H       -0.61567018      -0.69262401      -1.47922887
H        0.39338621      -1.37473434      -0.23844862
H       -2.57184154      -0.54064525       1.56860379
H       -2.51275913      -1.09651728      -0.17416449
H       -2.01731199       1.20088500      -0.96994414
H       -2.07235409       1.85111773       0.74068441
16
Frame=4 idx=009961 GeodesicLength=0.18389633316236276 rxn_smarts="[C:1]([C:2]#[C:3][C:4]([N:5]1[C:6]([H:13])([H:14])[C:7]1([H:15])[H:16])([H:11])[H:12])([H:8])([H:9])[H:10]>>[C:1]([C:2](=[C:3])[C:4]([N:5]1[C:6]([H:13])([H:14])[C:7]1([H:15])[H:16])([H:11])[H:12])([H:8])([H:9])[H:10]"
C        2.74619129      -0.10909884       0.32748049
C        1.67479282       0.25542209      -0.59942145
C        0.89536120       0.78890849      -1.41245012
C       -0.04620956      -0.44482731      -0.59316173
N       -0.82766453       0.10086130       0.48749209
C       -2.20160607      -0.37014433       0.56258224
C       -1.89291851       1.00346052       0.10335603
H        3.58086998       0.57551708       0.17313858
H        3.09552653      -1.12833928       0.15446570
H        2.40684067      -0.01407002       1.36000446
H       -0.63354890      -0.69346726      -1.48534679
H        0.37039315      -1.40197198      -0.25781997
H       -2.58445663      -0.54740573       1.56030799
H       -2.53310922      -1.08088217      -0.18957012
H       -2.00243666       1.21861203      -0.95504012
H       -2.04802557       1.84742540       0.76398272
16
Frame=5 idx=009961 GeodesicLength=0.23002192725271875 rxn_smarts="[C:1]([C:2]#[C:3][C:4]([N:5]1[C:6]([H:13])([H:14])[C:7]1([H:15])[H:16])([H:11])[H:12])([H:8])([H:9])[H:10]>>[C:1]([C:2](=[C:3])[C:4]([N:5]1[C:6]([H:13])([H:14])[C:7]1([H:15])[H:16])([H:11])[H:12])([H:8])([H:9])[H:10]"
C        2.75419717      -0.09259032       0.33277859
C        1.67606734       0.23718140      -0.59991630
C        0.90391351       0.75838593      -1.42590844
C       -0.05512481      -0.46176749      -0.59999976
N       -0.83012280       0.08062840       0.48836545
C       -2.21114463      -0.36947303       0.55653110
C       -1.88068277       1.00535720       0.11610876
H        3.58169936       0.59684045       0.16187126
H        3.11244145      -1.11228835       0.18166319
H        2.41467593       0.02064371       1.36343699
H       -0.65135431      -0.69387394      -1.49150725
H        0.34626591      -1.42974907      -0.27770750
H       -2.59793829      -0.55420026       1.55138654
H       -2.55370966      -1.06434927      -0.20552955
H       -1.98624367       1.23643650      -0.93949216
H       -2.02293971       1.84281814       0.78791908
16
Frame=6 idx=009961 GeodesicLength=0.27621189093675025 rxn_smarts="[C:1]([C:2]#[C:3][C:4]([N:5]1[C:6]([H:13])([H:14])[C:7]1([H:15])[H:16])([H:11])[H:12])([H:8])([H:9])[H:10]>>[C:1]([C:2](=[C:3])[C:4]([N:5]1[C:6]([H:13])([H:14])[C:7]1([H:15])[H:16])([H:11])[H:12])([H:8])([H:9])[H:10]"
C        2.76217360      -0.07541050       0.33790396
C        1.67721321       0.21825851      -0.59955939
C        0.91280228       0.72683868      -1.43872448
C       -0.06430026      -0.47921852      -0.60677962
N       -0.83299721       0.05951500       0.48928608
C       -2.22103287      -0.36863713       0.55009839
C       -1.86777227       1.00678211       0.12933220
H        3.58250389       0.61791320       0.14900055
H        3.12908139      -1.09524824       0.20991869
H        2.42288070       0.05743558       1.36630465
H       -0.66905249      -0.69383907      -1.49770934
H        0.32093672      -1.45807748      -0.29815243
H       -2.61235278      -0.56095866       1.54174170
H       -2.57449921      -1.04674535      -0.22211021
H       -1.96853661       1.25429722      -0.92315836
H       -1.99704808       1.83709465       0.81260762
16
Frame=7 idx=009961 GeodesicLength=0.3224768926687898 rxn_smarts="[C:1]([C:2]#[C:3][C:4]([N:5]1[C:6]([H:13])([H:14])[C:7]1([H:15])[H:16])([H:11])[H:12])([H:8])([H:9])[H:10]>>[C:1]([C:2](=[C:3])[C:4]([N:5]1[C:6]([H:13])([H:14])[C:7]1([H:15])[H:16])([H:11])[H:12])([H:8])([H:9])[H:10]"
C        2.77010548      -0.05753994       0.34282348
C        1.67821998       0.19865460      -0.59824816
C        0.92205854       0.69421668      -1.45083780
C       -0.07374161      -0.49719346      -0.61348306
N       -0.83634333       0.03749926       0.49023979
C       -2.23126888      -0.36759170       0.54326633
C       -1.85416772       1.00767079       0.14305556
H        3.58326470       0.63864767       0.13451262
H        3.14546709      -1.07710042       0.23921849
H        2.43141202       0.09634102       1.36846808
H       -0.68658990      -0.69333084      -1.50393792
H        0.29433764      -1.48693224      -0.31917971
H       -2.62772829      -0.56760045       1.53133292
H       -2.59541162      -1.02797666      -0.23932047
H       -1.94923703       1.27209600      -0.90598532
H       -1.97037708       1.83013969       0.83807518
16
Frame=8 idx=009961 GeodesicLength=0.36883111879423564 rxn_smarts="[C:1]([C:2]#[C:3][C:4]([N:5]1[C:6]([H:13])([H:14])[C:7]1([H:15])[H:16])([H:11])[H:12])([H:8])([H:9])[H:10]>>[C:1]([C:2](=[C:3])[C:4]([N:5]1[C:6]([H:13])([H:14])[C:7]1([H:15])[H:16])([H:11])[H:12])([H:8])([H:9])[H:10]"
C        2.77809042      -0.03905876       0.34746481
C        1.67907706       0.17847444      -0.59578569
C        0.93173293       0.66055069      -1.46210994
C       -0.08342534      -0.51563967      -0.61998587
N       -0.84022273       0.01468379       0.49126717
C       -2.24191033      -0.36632420       0.53605475
C       -1.84000046       1.00803062       0.15716969
H        3.58398982       0.65912917       0.11852185
H        3.16182155      -1.05782759       0.26911556
H        2.44042778       0.13692390       1.36992105
H       -0.70385158      -0.69232617      -1.51009097
H        0.26643561      -1.51619799      -0.34064617
H       -2.64414976      -0.57407603       1.52019557
H       -2.61643081      -1.00814749      -0.25708708
H       -1.92844580       1.28974915      -0.88812847
H       -1.94313835       1.82205614       0.86412374
16
Frame=9 idx=009961 GeodesicLength=0.41525928422280933 rxn_smarts="[C:1]([C:2]#[C:3][C:4]([N:5]1[C:6]([H:13])([H:14])[C:7]1([H:15])[H:16])([H:11])[H:12])([H:8])([H:9])[H:10]>>[C:1]([C:2](=[C:3])[C:4]([N:5]1[C:6]([H:13])([H:14])[C:7]1([H:15])[H:16])([H:11])[H:12])([H:8])([H:9])[H:10]"
C        2.78605088      -0.01992286       0.35182814
C        1.67982295       0.15776630      -0.59209222
C        0.94186455       0.62586174      -1.47242924
C       -0.09333597      -0.53453893      -0.62635815
N       -0.84463862      -0.00896926       0.49231621
C       -2.25284513      -0.36482884       0.52845240
C       -1.82527239       1.00774713       0.17173884
H        3.58480159       0.67881772       0.10082547
H        3.17775136      -1.03736976       0.30007118
H        2.44987056       0.17971251       1.37035878
H       -0.72077255      -0.69070541      -1.51618877
H        0.23715421      -1.54580503      -0.36283739
H       -2.66149925      -0.58035894       1.50826004
H       -2.63737914      -0.98714063      -0.27541504
H       -1.90613839       1.30708516      -0.86939504
H       -1.91543464       1.81264912       0.89086478
16
Frame=10 idx=009961 GeodesicLength=0.4617880887234608 rxn_smarts="[C:1]([C:2]#[C:3][C:4]([N:5]1[C:6]([H:13])([H:14])[C:7]1([H:15])[H:16])([H:11])[H:12])([H:8])([H:9])[H:10]>>[C:1]([C:2](=[C:3])[C:4]([N:5]1[C:6]([H:13])([H:14])[C:7]1([H:15])[H:16])([H:11])[H:12])([H:8])([H:9])[H:10]"
C        2.79392491      -0.00008547       0.35584013
C        1.68037669       0.13653094      -0.58709846
C        0.95245926       0.58995494      -1.48181096
C       -0.10349136      -0.55397751      -0.63254059
N       -0.84968150      -0.03355418       0.49340581
C       -2.26412599      -0.36301468       0.52039484
C       -1.80986657       1.00675305       0.18685882
H        3.58556743       0.69784315       0.08145992
H        3.19341977      -1.01550403       0.33192326
H        2.45959001       0.22465652       1.36963742
H       -0.73729986      -0.68855214      -1.52219702
H        0.20647970      -1.57576670      -0.38560915
H       -2.67995808      -0.58633958       1.49539611
H       -2.65822998      -0.96477120      -0.29440733
H       -1.88203492       1.32408654      -0.84966589
H       -1.88712952       1.80174034       0.91841310
16
Frame=11 idx=009961 GeodesicLength=0.5084462948073802 rxn_smarts="[C:1]([C:2]#[C:3][C:4]([N:5]1[C:6]([H:13])([H:14])[C:7]1([H:15])[H:16])([H:11])[H:12])([H:8])([H:9])[H:10]>>[C:1]([C:2](=[C:3])[C:4]([N:5]1[C:6]([H:13])([H:14])[C:7]1([H:15])[H:16])([H:11])[H:12])([H:8])([H:9])[H:10]"
C        2.80165116       0.02050063       0.35947396
C        1.68070765       0.11479531      -0.58074289
C        0.96353089       0.55272259      -1.49022744
C       -0.11389410      -0.57399155      -0.63853550
N       -0.85539739      -0.05911759       0.49451375
C       -2.27572759      -0.36085282       0.51186049
C       -1.79372636       1.00498241       0.20258804
H        3.58623525       0.71610239       0.06041016
H        3.20875799      -0.99211448       0.36472509
H        2.46949392       0.27187243       1.36759264
H       -0.75337481      -0.68585023      -1.52810609
H        0.17437406      -1.60603839      -0.40901722
H       -2.69954065      -0.59195508       1.48154086
H       -2.67890116      -0.94093491      -0.31409451
H       -1.85600020       1.34067649      -0.82882675
H       -1.85818867       1.78920281       0.94684543
16
Frame=12 idx=009961 GeodesicLength=0.5552039821542096 rxn_smarts="[C:1]([C:2]#[C:3][C:4]([N:5]1[C:6]([H:13])([H:14])[C:7]1([H:15])[H:16])([H:11])[H:12])([H:8])([H:9])[H:10]>>[C:1]([C:2](=[C:3])[C:4]([N:5]1[C:6]([H:13])([H:14])[C:7]1([H:15])[H:16])([H:11])[H:12])([H:8])([H:9])[H:10]"
C        2.80931368       0.04171306       0.36265536
C        1.68078232       0.09271748      -0.57284235
C        0.97511572       0.51415144      -1.49757005
C       -0.12450790      -0.59453373      -0.64419968
N       -0.86183843      -0.08550271       0.49567599
C       -2.28768685      -0.35829570       0.50288805
C       -1.77700387       1.00246748       0.21876574
H        3.58662284       0.73390634       0.03803897
H        3.22420053      -0.96713564       0.39772539
H        2.47967078       0.32050082       1.36429534
H       -0.76885522      -0.68263690      -1.53378155
H        0.14085025      -1.63646837      -0.43285259
H       -2.72029492      -0.59706385       1.46677104
H       -2.69934615      -0.91575846      -0.33434985
H       -1.82818889       1.35673152      -0.80709448
H       -1.82883389       1.77520723       0.97587466
16
Frame=13 idx=009961 GeodesicLength=0.6020985613112291 rxn_smarts="[C:1]([C:2]#[C:3][C:4]([N:5]1[C:6]([H:13])([H:14])[C:7]1([H:15])[H:16])([H:11])[H:12])([H:8])([H:9])[H:10]>>[C:1]([C:2](=[C:3])[C:4]([N:5]1[C:6]([H:13])([H:14])[C:7]1([H:15])[H:16])([H:11])[H:12])([H:8])([H:9])[H:10]"
C        2.81676241       0.06364006       0.36535323
C        1.68056841       0.07034454      -0.56338375
C        0.98722078       0.47408757      -1.50383463
C       -0.13533110      -0.61567222      -0.64957552
N       -0.86903185      -0.11282760       0.49686415
C       -2.29993150      -0.35529170       0.49343659
C       -1.75956979       0.99909353       0.23552763
H        3.58667795       0.75101401       0.01425001
H        3.23949507      -0.94041158       0.43118142
H        2.48990872       0.37091764       1.35948717
H       -0.78368639      -0.67890986      -1.53923520
H        0.10589326      -1.66703979      -0.45723713
H       -2.74221216      -0.60158802       1.45096087
H       -2.71943582      -0.88903938      -0.35525394
H       -1.79836645       1.37216308      -0.78424010
H       -1.79896153       1.75951972       1.00569920
16
Frame=14 idx=009961 GeodesicLength=0.6491636288186897 rxn_smarts="[C:1]([C:2]#[C:3][C:4]([N:5]1[C:6]([H:13])([H:14])[C:7]1([H:15])[H:16])([H:11])[H:12])([H:8])([H:9])[H:10]>>[C:1]([C:2](=[C:3])[C:4]([N:5]1[C:6]([H:13])([H:14])[C:7]1([H:15])[H:16])([H:11])[H:12])([H:8])([H:9])[H:10]"
C        2.82387296       0.08632487       0.36752911
C        1.68002974       0.04781508      -0.55232694
C        0.99986021       0.43245220      -1.50899601
C       -0.14634144      -0.63744042      -0.65468514
N       -0.87699419      -0.14117022       0.49805723
C       -2.31239705      -0.35181277       0.48346663
C       -1.74136431       0.99475510       0.25297699
H        3.58648388       0.76706348      -0.01108955
H        3.25428742      -0.91184818       0.46537946
H        2.50005781       0.42352323       1.35286285
H       -0.79777813      -0.67464656      -1.54445804
H        0.06951604      -1.69768149      -0.48227878
H       -2.76527642      -0.60551502       1.43401496
H       -2.73902892      -0.86063006      -0.37685889
H       -1.76638709       1.38688679      -0.76007557
H       -1.76854053       1.74192396       1.03648168
16
Frame=15 idx=009961 GeodesicLength=0.6963887213003468 rxn_smarts="[C:1]([C:2]#[C:3][C:4]([N:5]1[C:6]([H:13])([H:14])[C:7]1([H:15])[H:16])([H:11])[H:12])([H:8])([H:9])[H:10]>>[C:1]([C:2](=[C:3])[C:4]([N:5]1[C:6]([H:13])([H:14])[C:7]1([H:15])[H:16])([H:11])[H:12])([H:8])([H:9])[H:10]"
C        2.83055840       0.10973075       0.36913072
C        1.67912932       0.02526867      -0.53962383
C        1.01305659       0.38909697      -1.51303489
C       -0.15750070      -0.65987892      -0.65946656
N       -0.88572469      -0.17047381       0.49925894
C       -2.32502839      -0.34777522       0.47301440
C       -1.72236620       0.98943694       0.27106044
H        3.58574623       0.78235580      -0.03759936
H        3.26880551      -0.88128691       0.49979452
H        2.50986600       0.47767875       1.34440011
H       -0.81101273      -0.66992560      -1.54935686
H        0.03173555      -1.72830425      -0.50790570
H       -2.78945006      -0.60865201       1.41596878
H       -2.75800825      -0.83050026      -0.39906623
H       -1.73221437       1.40076932      -0.73466731
H       -1.73759220       1.72245979       1.06809282
16
Frame=16 idx=009961 GeodesicLength=0.7438576319656631 rxn_smarts="[C:1]([C:2]#[C:3][C:4]([N:5]1[C:6]([H:13])([H:14])[C:7]1([H:15])[H:16])([H:11])[H:12])([H:8])([H:9])[H:10]>>[C:1]([C:2](=[C:3])[C:4]([N:5]1[C:6]([H:13])([H:14])[C:7]1([H:15])[H:16])([H:11])[H:12])([H:8])([H:9])[H:10]"
C        2.83663153       0.13395191       0.37013079
C        1.67782335       0.00290334      -0.52529983
C        1.02681441       0.34393058      -1.51595409
C       -0.16878498      -0.68303351      -0.66399765
N       -0.89521765      -0.20088617       0.50042973
C       -2.33773175      -0.34319205       0.46204434
C       -1.70245259       0.98299433       0.28995386
H        3.58469980       0.79624924      -0.06551589
H        3.28236985      -0.84862291       0.53502967
H        2.51911988       0.53417326       1.33363195
H       -0.82330724      -0.66469577      -1.55395491
H       -0.00742547      -1.75883864      -0.53434261
H       -2.81467978      -0.61105225       1.39671470
H       -2.77622401      -0.79846025      -0.42195867
H       -1.69563030       1.41374451      -0.70772163
H       -1.70600506       1.70083438       1.10081025
