10
Frame=0 idx=001256 GeodesicLength=0.0 rxn_smarts="[n:1]1([H:6])[c:2]([H:7])[c:3]([H:8])[c:4]([H:9])[c:5]1[H:10]>>[N:1](=[C:2](/[C:3](=[C:4]=[C:5]([H:9])[H:10])[H:8])[H:7])\[H:6]"
N        0.16632420       0.99764945      -0.14229017
C        1.10568135       0.05173181       0.10405946
C        0.52008327      -1.18210126       0.10275435
C       -0.87959237      -1.08910072      -0.23769599
C       -1.05439732       0.33877497      -0.29217085
H        0.31759613       1.98980798      -0.12935869
H        2.13212988       0.33812950       0.28958171
H        1.04773141      -2.10679340       0.28401281
H       -1.45210827      -0.20994675       0.72041869
H       -1.90344827       0.87184843      -0.69931131
10
Frame=1 idx=001256 GeodesicLength=0.11366061043437811 rxn_smarts="[n:1]1([H:6])[c:2]([H:7])[c:3]([H:8])[c:4]([H:9])[c:5]1[H:10]>>[N:1](=[C:2](/[C:3](=[C:4]=[C:5]([H:9])[H:10])[H:8])[H:7])\[H:6]"
N        0.17532247       1.00668941      -0.12537896
C        1.10969491       0.05911625       0.12175618
C        0.52030584      -1.17704672       0.11191522
C       -0.87400104      -1.08175758      -0.22953533
C       -1.07080496       0.33613408      -0.28728127
H        0.34491568       1.99613608      -0.13555143
H        2.14582349       0.33303828       0.26901406
H        1.05015503      -2.10480130       0.26932560
H       -1.48805161      -0.22718890       0.72467348
H       -1.91335980       0.85968040      -0.71893756
10
Frame=2 idx=001256 GeodesicLength=0.22729277467122094 rxn_smarts="[n:1]1([H:6])[c:2]([H:7])[c:3]([H:8])[c:4]([H:9])[c:5]1[H:10]>>[N:1](=[C:2](/[C:3](=[C:4]=[C:5]([H:9])[H:10])[H:8])[H:7])\[H:6]"
N        0.18491149       1.01626561      -0.10843426
C        1.11424032       0.06664043       0.13827501
C        0.52066624      -1.17165714       0.12062463
C       -0.86850016      -1.07391052      -0.22080121
C       -1.08764206       0.33357283      -0.28186739
H        0.37330381       2.00201918      -0.14277599
H        2.15829053       0.32775422       0.24980025
H        1.05232355      -2.10203386       0.25457311
H       -1.52441837      -0.24584443       0.72848353
H       -1.92317536       0.84719369      -0.73787768
10
Frame=3 idx=001256 GeodesicLength=0.34092213882552336 rxn_smarts="[n:1]1([H:6])[c:2]([H:7])[c:3]([H:8])[c:4]([H:9])[c:5]1[H:10]>>[N:1](=[C:2](/[C:3](=[C:4]=[C:5]([H:9])[H:10])[H:8])[H:7])\[H:6]"
N        0.19526967       1.02632469      -0.09238883
C        1.11945783       0.07420140       0.15255091
C        0.52113147      -1.16596351       0.12872797
C       -0.86324159      -1.06555034      -0.21117768
C       -1.10498608       0.33107581      -0.27595020
H        0.40258346       2.00744463      -0.15065830
H        2.16969314       0.32245536       0.23319714
H        1.05414908      -2.09858501       0.23964152
H       -1.56096003      -0.26570086       0.73206253
H       -1.93309696       0.83429784      -0.75600506
10
Frame=4 idx=001256 GeodesicLength=0.45453450045371885 rxn_smarts="[n:1]1([H:6])[c:2]([H:7])[c:3]([H:8])[c:4]([H:9])[c:5]1[H:10]>>[N:1](=[C:2](/[C:3](=[C:4]=[C:5]([H:9])[H:10])[H:8])[H:7])\[H:6]"
N        0.20655977       1.03681322      -0.07800506
C        1.12535488       0.08177787       0.16439277
C        0.52165658      -1.15996896       0.13630277
C       -0.85829242      -1.05667242      -0.20047855
C       -1.12288171       0.32861156      -0.26963448
H        0.43251432       2.01257806      -0.15828959
H        2.18045819       0.31716622       0.21908892
H        1.05550996      -2.09452764       0.22469385
H       -1.59767587      -0.28664256       0.73538875
H       -1.94320370       0.82086465      -0.77345938
10
Frame=5 idx=001256 GeodesicLength=0.5681577324876337 rxn_smarts="[n:1]1([H:6])[c:2]([H:7])[c:3]([H:8])[c:4]([H:9])[c:5]1[H:10]>>[N:1](=[C:2](/[C:3](=[C:4]=[C:5]([H:9])[H:10])[H:8])[H:7])\[H:6]"
N        0.21883164       1.04776228      -0.06513294
C        1.13185167       0.08942509       0.17438291
C        0.52220604      -1.15363045       0.14360632
C       -0.85359634      -1.04723233      -0.18878086
C       -1.14135485       0.32617972      -0.26292656
H        0.46307091       2.01762337      -0.16527738
H        2.19095388       0.31180009       0.20639593
H        1.05632816      -2.08988331       0.20998671
H       -1.63486250      -0.30891500       0.73815426
H       -1.95342861       0.80687054      -0.79040840
10
Frame=6 idx=001256 GeodesicLength=0.681761852783298 rxn_smarts="[n:1]1([H:6])[c:2]([H:7])[c:3]([H:8])[c:4]([H:9])[c:5]1[H:10]>>[N:1](=[C:2](/[C:3](=[C:4]=[C:5]([H:9])[H:10])[H:8])[H:7])\[H:6]"
N        0.23215722       1.05916736      -0.05400433
C        1.13893705       0.09717000       0.18264800
C        0.52276220      -1.14692099       0.15066858
C       -0.84915785      -1.03719005      -0.17605978
C       -1.16045613       0.32377619      -0.25579965
H        0.49425346       2.02279368      -0.17129269
H        2.20140297       0.30631535       0.19477615
H        1.05651023      -2.08469545       0.19573178
H       -1.67262227      -0.33269714       0.74018783
H       -1.96378687       0.79228104      -0.80685588
10
Frame=7 idx=001256 GeodesicLength=0.7953638845911334 rxn_smarts="[n:1]1([H:6])[c:2]([H:7])[c:3]([H:8])[c:4]([H:9])[c:5]1[H:10]>>[N:1](=[C:2](/[C:3](=[C:4]=[C:5]([H:9])[H:10])[H:8])[H:7])\[H:6]"
N        0.24654941       1.07109053      -0.04431016
C        1.14656806       0.10505908       0.18955998
C        0.52330817      -1.13978408       0.15761190
C       -0.84493573      -1.02646498      -0.16235661
C       -1.18023710       0.32142173      -0.24812893
H        0.52621153       2.02819398      -0.17659149
H        2.21192527       0.30065640       0.18378266
H        1.05602132      -2.07896609       0.18198563
H       -1.71117321      -0.35835090       0.74118279
H       -1.97423773       0.77714433      -0.82273578
10
Frame=8 idx=001256 GeodesicLength=0.9089447495166854 rxn_smarts="[n:1]1([H:6])[c:2]([H:7])[c:3]([H:8])[c:4]([H:9])[c:5]1[H:10]>>[N:1](=[C:2](/[C:3](=[C:4]=[C:5]([H:9])[H:10])[H:8])[H:7])\[H:6]"
N        0.26203887       1.08355289      -0.03611193
C        1.15476272       0.11312509       0.19520940
C        0.52382372      -1.13217053       0.16451893
C       -0.84095180      -1.01498904      -0.14757617
C       -1.20076394       0.31911985      -0.23982763
H        0.55903969       2.03395257      -0.18109623
H        2.22265927       0.29478672       0.17316565
H        1.05480090      -2.07270614       0.16884332
H       -1.75064208      -0.38613523       0.74087864
H       -1.98476734       0.76146382      -0.83800398
10
Frame=9 idx=001256 GeodesicLength=1.0225214733647228 rxn_smarts="[n:1]1([H:6])[c:2]([H:7])[c:3]([H:8])[c:4]([H:9])[c:5]1[H:10]>>[N:1](=[C:2](/[C:3](=[C:4]=[C:5]([H:9])[H:10])[H:8])[H:7])\[H:6]"
N        0.27868527       1.09662580      -0.02906231
C        1.16342512       0.12141905       0.19986152
C        0.52429627      -1.12402016       0.17138592
C       -0.83714366      -1.00265066      -0.13168850
C       -1.22209539       0.31691416      -0.23068724
H        0.59296004       2.04002900      -0.18539587
H        2.23349989       0.28870465       0.16285246
H        1.05281531      -2.06590631       0.15627674
H       -1.79109199      -0.41647563       0.73890459
H       -1.99535085       0.74536009      -0.85244731
10
Frame=10 idx=001256 GeodesicLength=1.1360845502494505 rxn_smarts="[n:1]1([H:6])[c:2]([H:7])[c:3]([H:8])[c:4]([H:9])[c:5]1[H:10]>>[N:1](=[C:2](/[C:3](=[C:4]=[C:5]([H:9])[H:10])[H:8])[H:7])\[H:6]"
N        0.29651858       1.11032734      -0.02337154
C        1.17261115       0.12996516       0.20351761
C        0.52470217      -1.11527553       0.17831805
C       -0.83358942      -0.98936043      -0.11441369
C       -1.24432678       0.31480201      -0.22058801
H        0.62807608       2.04650694      -0.18945519
H        2.24460045       0.28237983       0.15282829
H        1.05000671      -2.05855240       0.14421399
H       -1.83260964      -0.44961630       0.73494227
H       -2.00598930       0.72882337      -0.86599178
10
Frame=11 idx=001256 GeodesicLength=1.2496250617213882 rxn_smarts="[n:1]1([H:6])[c:2]([H:7])[c:3]([H:8])[c:4]([H:9])[c:5]1[H:10]>>[N:1](=[C:2](/[C:3](=[C:4]=[C:5]([H:9])[H:10])[H:8])[H:7])\[H:6]"
N        0.31558685       1.12471179      -0.01898723
C        1.18230782       0.13879541       0.20630095
C        0.52501739      -1.10586075       0.18542106
C       -0.83031270      -0.97498513      -0.09543257
C       -1.26753995       0.31279662      -0.20933837
H        0.66453534       2.05338720      -0.19352337
H        2.25596553       0.27576826       0.14301558
H        1.04630773      -2.05059557       0.13253294
H       -1.87524327      -0.48589244       0.72851740
H       -2.01662474       0.71187462      -0.87850640
10
Frame=12 idx=001256 GeodesicLength=1.363150983044555 rxn_smarts="[n:1]1([H:6])[c:2]([H:7])[c:3]([H:8])[c:4]([H:9])[c:5]1[H:10]>>[N:1](=[C:2](/[C:3](=[C:4]=[C:5]([H:9])[H:10])[H:8])[H:7])\[H:6]"
N        0.33594574       1.13980851      -0.01595147
C        1.19251374       0.14794913       0.20823485
C        0.52521702      -1.09570544       0.19276551
C       -0.82736155      -0.95938182      -0.07429631
C       -1.29184182       0.31091505      -0.19674103
H        0.70247809       2.06068403      -0.19767862
H        2.26760225       0.26885094       0.13330086
H        1.04160842      -2.04200670       0.12117630
H       -1.91897494      -0.52562823       0.71909902
H       -2.02718695       0.69451454      -0.88990910
10
Frame=13 idx=001256 GeodesicLength=1.4766351572777432 rxn_smarts="[n:1]1([H:6])[c:2]([H:7])[c:3]([H:8])[c:4]([H:9])[c:5]1[H:10]>>[N:1](=[C:2](/[C:3](=[C:4]=[C:5]([H:9])[H:10])[H:8])[H:7])\[H:6]"
N        0.35764872       1.15566744      -0.01434908
C        1.20319885       0.15747043       0.20953734
C        0.52524841      -1.08470795       0.20044165
C       -0.82481916      -0.94233849      -0.05028195
C       -1.31733166       0.30915866      -0.18249939
H        0.74207596       2.06830669      -0.20247208
H        2.27950472       0.26159787       0.12400094
H        1.03575710      -2.03265838       0.10956831
H       -1.96373226      -0.56915928       0.70605431
H       -2.03755067       0.67666300      -0.90000005
10
Frame=14 idx=001256 GeodesicLength=1.5900971781165358 rxn_smarts="[n:1]1([H:6])[c:2]([H:7])[c:3]([H:8])[c:4]([H:9])[c:5]1[H:10]>>[N:1](=[C:2](/[C:3](=[C:4]=[C:5]([H:9])[H:10])[H:8])[H:7])\[H:6]"
N        0.38075151       1.17228385      -0.01438454
C        1.21437107       0.16739257       0.21005101
C        0.52507953      -1.07280339       0.20842396
C       -0.82277060      -0.92362648      -0.02249480
C       -1.34417802       0.30754655      -0.16641460
H        0.78343749       2.07632726      -0.20762979
H        2.29168055       0.25399645       0.11490926
H        1.02850307      -2.02255511       0.09770826
H       -2.00927548      -0.61674169       0.68865771
H       -2.04759912       0.65817998      -0.90882647
10
Frame=15 idx=001256 GeodesicLength=1.703454522645607 rxn_smarts="[n:1]1([H:6])[c:2]([H:7])[c:3]([H:8])[c:4]([H:9])[c:5]1[H:10]>>[N:1](=[C:2](/[C:3](=[C:4]=[C:5]([H:9])[H:10])[H:8])[H:7])\[H:6]"
N        0.40529422       1.18966259      -0.01637666
C        1.22598362       0.17775131       0.20983014
C        0.52461659      -1.05987822       0.21673931
C       -0.82133302      -0.90286077       0.01057849
C       -1.37252407       0.30607112      -0.14822080
H        0.82667882       2.08473589      -0.21324991
H        2.30409309       0.24599573       0.10625708
H        1.01944167      -2.01156512       0.08482146
H       -2.05521345      -0.66855726       0.66606096
H       -2.05703747       0.63864472      -0.91644007
10
Frame=16 idx=001256 GeodesicLength=1.816727009712031 rxn_smarts="[n:1]1([H:6])[c:2]([H:7])[c:3]([H:8])[c:4]([H:9])[c:5]1[H:10]>>[N:1](=[C:2](/[C:3](=[C:4]=[C:5]([H:9])[H:10])[H:8])[H:7])\[H:6]"
N        0.43132361       1.20783082      -0.02047380
C        1.23797622       0.18859006       0.20895226
C        0.52369504      -1.04577703       0.22538094
C       -0.82062498      -0.87941910       0.05100375
C       -1.40259644       0.30474609      -0.12764652
H        0.87195575       2.09349425      -0.21944187
H        2.31667135       0.23751434       0.09817526
H        1.00789535      -1.99949552       0.06991655
H       -2.10084939      -0.72485889       0.63722587
H       -2.06544652       0.61737498      -0.92309245
