15
Frame=0 idx=010497 GeodesicLength=0.0 rxn_smarts="[C:1]([c:2]1[c:3]([H:11])[n:4]([H:12])[c:5]([N:6]([H:13])[H:14])[c:7]1[H:15])([H:8])([H:9])[H:10]>>[C:1]([C:2](/[C:3](=[N:4]/[H:12])[H:11])=[C:7]=[C:5]([N:6]([H:13])[H:14])[H:15])([H:8])([H:9])[H:10]"
C       -2.44955339      -0.16522231       0.14892104
C       -0.96724065       0.03288160       0.06774092
C       -0.33655375       1.19896321      -0.28834724
N        1.00137113       1.02380322      -0.29978503
C        1.25061758      -0.32345443       0.02901629
N        2.54197518      -0.66444328       0.49429733
C        0.00478769      -0.98015392       0.37998817
H       -2.79541526      -0.85181310      -0.62693735
H       -2.72511868      -0.60276985       1.10956319
H       -2.99213963       0.77576906       0.03487908
H       -0.76556635       2.14822429      -0.58524364
H        1.69766912       1.72978702      -0.45265036
H        2.47545318      -1.46741768       1.10213734
H        3.20133728      -0.85677490      -0.24507345
H        0.85837661      -0.99737887      -0.86850629
15
Frame=1 idx=010497 GeodesicLength=0.11857609987820088 rxn_smarts="[C:1]([c:2]1[c:3]([H:11])[n:4]([H:12])[c:5]([N:6]([H:13])[H:14])[c:7]1[H:15])([H:8])([H:9])[H:10]>>[C:1]([C:2](/[C:3](=[N:4]/[H:12])[H:11])=[C:7]=[C:5]([N:6]([H:13])[H:14])[H:15])([H:8])([H:9])[H:10]"
C       -2.44542827      -0.16555870       0.15032380
C       -0.96388530       0.03889847       0.07320115
C       -0.33933840       1.20918362      -0.29363176
N        0.99705634       1.03790910      -0.32283619
C        1.25814718      -0.33338868       0.02052871
N        2.54701853      -0.67076116       0.49352936
C        0.01040926      -0.96989221       0.37154191
H       -2.79157680      -0.82498454      -0.64869877
H       -2.71878824      -0.63592536       1.09593641
H       -2.99039675       0.77758933       0.07065638
H       -0.78109426       2.15688264      -0.57687912
H        1.68287171       1.75791135      -0.45917369
H        2.47767349      -1.44417075       1.13813710
H        3.20052473      -0.90067698      -0.24015498
H        0.85680680      -1.03301612      -0.87248031
15
Frame=2 idx=010497 GeodesicLength=0.23713896136205448 rxn_smarts="[C:1]([c:2]1[c:3]([H:11])[n:4]([H:12])[c:5]([N:6]([H:13])[H:14])[c:7]1[H:15])([H:8])([H:9])[H:10]>>[C:1]([C:2](/[C:3](=[N:4]/[H:12])[H:11])=[C:7]=[C:5]([N:6]([H:13])[H:14])[H:15])([H:8])([H:9])[H:10]"
C       -2.44103648      -0.16591699       0.15157845
C       -0.96028900       0.04480373       0.07797278
C       -0.34219955       1.21972090      -0.29842427
N        0.99249777       1.05285234      -0.34521671
C        1.26585768      -0.34368291       0.01162837
N        2.55200328      -0.67757563       0.49272534
C        0.01618108      -0.95972833       0.36211701
H       -2.78802780      -0.79735279      -0.66945640
H       -2.71173621      -0.66856587       1.08117715
H       -2.98817581       0.77826364       0.10653180
H       -0.79666337       2.16566491      -0.56749767
H        1.66740719       1.78621775      -0.46680351
H        2.47981997      -1.41942403       1.17300369
H        3.19927267      -0.94548768      -0.23342757
H        0.85508857      -1.06978904      -0.87590846
15
Frame=3 idx=010497 GeodesicLength=0.3556874243646945 rxn_smarts="[C:1]([c:2]1[c:3]([H:11])[n:4]([H:12])[c:5]([N:6]([H:13])[H:14])[c:7]1[H:15])([H:8])([H:9])[H:10]>>[C:1]([C:2](/[C:3](=[N:4]/[H:12])[H:11])=[C:7]=[C:5]([N:6]([H:13])[H:14])[H:15])([H:8])([H:9])[H:10]"
C       -2.43638040      -0.16630812       0.15266357
C       -0.95645382       0.05058519       0.08198792
C       -0.34514111       1.23058440      -0.30277811
N        0.98769880       1.06871451      -0.36683515
C        1.27376356      -0.35436893       0.00225475
N        2.55692149      -0.68491782       0.49187515
C        0.02211002      -0.94963903       0.35168314
H       -2.78479871      -0.76907431      -0.68912334
H       -2.70396662      -0.70055490       1.06535097
H       -2.98546273       0.77776703       0.14232990
H       -0.81227514       2.17461585      -0.55696016
H        1.65135337       1.81482356      -0.47552592
H        2.48189244      -1.39324836       1.20658822
H        3.19755036      -0.99114345      -0.22483102
H        0.85318850      -1.10783561      -0.87867991
15
Frame=4 idx=010497 GeodesicLength=0.4742203832366568 rxn_smarts="[C:1]([c:2]1[c:3]([H:11])[n:4]([H:12])[c:5]([N:6]([H:13])[H:14])[c:7]1[H:15])([H:8])([H:9])[H:10]>>[C:1]([C:2](/[C:3](=[N:4]/[H:12])[H:11])=[C:7]=[C:5]([N:6]([H:13])[H:14])[H:15])([H:8])([H:9])[H:10]"
C       -2.43145026      -0.16671176       0.15365445
C       -0.95237084       0.05626761       0.08529173
C       -0.34815263       1.24186282      -0.30648345
N        0.98267572       1.08564124      -0.38741783
C        1.28188276      -0.36546539      -0.00763933
N        2.56176242      -0.69287841       0.49094555
C        0.02821389      -0.93961287       0.34016552
H       -2.78191394      -0.74013827      -0.70762341
H       -2.69546931      -0.73187894       1.04854642
H       -2.98221869       0.77612590       0.17814729
H       -0.82799388       2.18341416      -0.54629722
H        1.63475067       1.84397763      -0.48479776
H        2.48389287      -1.36591147       1.23860499
H        3.19533586      -1.03751298      -0.21437445
H        0.85105537      -1.14717928      -0.88072250
15
Frame=5 idx=010497 GeodesicLength=0.592732383072218 rxn_smarts="[C:1]([c:2]1[c:3]([H:11])[n:4]([H:12])[c:5]([N:6]([H:13])[H:14])[c:7]1[H:15])([H:8])([H:9])[H:10]>>[C:1]([C:2](/[C:3](=[N:4]/[H:12])[H:11])=[C:7]=[C:5]([N:6]([H:13])[H:14])[H:15])([H:8])([H:9])[H:10]"
C       -2.42623432      -0.16715712       0.15444422
C       -0.94803101       0.06183686       0.08775000
C       -0.35123559       1.25348893      -0.30987093
N        0.97743591       1.10360951      -0.40726947
C        1.29022584      -0.37703701      -0.01819877
N        2.56652491      -0.70140886       0.48987639
C        0.03450659      -0.92957706       0.32761537
H       -2.77937037      -0.71075430      -0.72496273
H       -2.68624888      -0.76241966       1.03076330
H       -2.97842210       0.77331352       0.21369983
H       -0.84377857       2.19241267      -0.53442766
H        1.61763323       1.87374055      -0.49475386
H        2.48584281      -1.33718624       1.26909238
H        3.19254957      -1.08466715      -0.20200348
H        0.84860197      -1.18819463      -0.88175458
15
Frame=6 idx=010497 GeodesicLength=0.7112233761140541 rxn_smarts="[C:1]([c:2]1[c:3]([H:11])[n:4]([H:12])[c:5]([N:6]([H:13])[H:14])[c:7]1[H:15])([H:8])([H:9])[H:10]>>[C:1]([C:2](/[C:3](=[N:4]/[H:12])[H:11])=[C:7]=[C:5]([N:6]([H:13])[H:14])[H:15])([H:8])([H:9])[H:10]"
C       -2.42071295      -0.16760806       0.15514628
C       -0.94341748       0.06733173       0.08941247
C       -0.35437108       1.26556587      -0.31269441
N        0.97201228       1.12279440      -0.42604640
C        1.29881535      -0.38910668      -0.02949085
N        2.57119026      -0.71062007       0.48863296
C        0.04101596      -0.91952629       0.31389530
H       -2.77719789      -0.68089439      -0.74103032
H       -2.67627301      -0.79215342       1.01214180
H       -2.97401711       0.76938163       0.24913900
H       -0.85973282       2.20118520      -0.52278187
H        1.59998845       1.90440661      -0.50460797
H        2.48773766      -1.30745752       1.29770211
H        3.18918642      -1.13240997      -0.18775074
H        0.84577596      -1.23088904      -0.88166735
15
Frame=7 idx=010497 GeodesicLength=0.8296922222898994 rxn_smarts="[C:1]([c:2]1[c:3]([H:11])[n:4]([H:12])[c:5]([N:6]([H:13])[H:14])[c:7]1[H:15])([H:8])([H:9])[H:10]>>[C:1]([C:2](/[C:3](=[N:4]/[H:12])[H:11])=[C:7]=[C:5]([N:6]([H:13])[H:14])[H:15])([H:8])([H:9])[H:10]"
C       -2.41486471      -0.16807735       0.15570530
C       -0.93851261       0.07275722       0.09017653
C       -0.35755530       1.27806499      -0.31516404
N        0.96642868       1.14322971      -0.44387530
C        1.30766592      -0.40173887      -0.04166470
N        2.57574626      -0.72049761       0.48715878
C        0.04775952      -0.90941099       0.29896019
H       -2.77539841      -0.65071874      -0.75581613
H       -2.66552328      -0.82099471       0.99272668
H       -2.96896659       0.76433674       0.28428761
H       -0.87585120       2.20990074      -0.51086750
H        1.58182059       1.93608677      -0.51426859
H        2.48958267      -1.27665004       1.32437019
H        3.18518133      -1.18072890      -0.17157945
H        0.84248712      -1.27555894      -0.88014958
15
Frame=8 idx=010497 GeodesicLength=0.9481441194004758 rxn_smarts="[C:1]([c:2]1[c:3]([H:11])[n:4]([H:12])[c:5]([N:6]([H:13])[H:14])[c:7]1[H:15])([H:8])([H:9])[H:10]>>[C:1]([C:2](/[C:3](=[N:4]/[H:12])[H:11])=[C:7]=[C:5]([N:6]([H:13])[H:14])[H:15])([H:8])([H:9])[H:10]"
C       -2.40866300      -0.16855454       0.15614432
C       -0.93329737       0.07812901       0.08998143
C       -0.36077200       1.29101952      -0.31726702
N        0.96070946       1.16500949      -0.46068475
C        1.31679842      -0.41499284      -0.05486412
N        2.58015875      -0.73106766       0.48542899
C        0.05477128      -0.89921900       0.28264400
H       -2.77400918      -0.62019950      -0.76930426
H       -2.65396427      -0.84897318       0.97255114
H       -2.96318933       0.75820294       0.31925308
H       -0.89215799       2.21846430      -0.49902780
H        1.56308652       1.96894199      -0.52344782
H        2.49133957      -1.24486230       1.34894605
H        3.18050309      -1.22951605      -0.15342873
H        0.83868605      -1.32238219      -0.87692450
15
Frame=9 idx=010497 GeodesicLength=1.0665641036300813 rxn_smarts="[C:1]([c:2]1[c:3]([H:11])[n:4]([H:12])[c:5]([N:6]([H:13])[H:14])[c:7]1[H:15])([H:8])([H:9])[H:10]>>[C:1]([C:2](/[C:3](=[N:4]/[H:12])[H:11])=[C:7]=[C:5]([N:6]([H:13])[H:14])[H:15])([H:8])([H:9])[H:10]"
C       -2.40206742      -0.16907436       0.15633939
C       -0.92773846       0.08344712       0.08871829
C       -0.36401844       1.30438996      -0.31922320
N        0.95486747       1.18811712      -0.47673255
C        1.32621608      -0.42896440      -0.06927652
N        2.58440595      -0.74227181       0.48335210
C        0.06205910      -0.88890278       0.26487728
H       -2.77299501      -0.58944639      -0.78160708
H       -2.64157237      -0.87611826       0.95152106
H       -2.95663136       0.75096079       0.35385910
H       -0.90856791       2.22718499      -0.48617585
H        1.54379631       2.00298167      -0.53239109
H        2.49302148      -1.21175002       1.37142451
H        3.17500194      -1.27884866      -0.13320224
H        0.83422265      -1.37170496      -0.87148320
15
Frame=10 idx=010497 GeodesicLength=1.184958616025458 rxn_smarts="[C:1]([c:2]1[c:3]([H:11])[n:4]([H:12])[c:5]([N:6]([H:13])[H:14])[c:7]1[H:15])([H:8])([H:9])[H:10]>>[C:1]([C:2](/[C:3](=[N:4]/[H:12])[H:11])=[C:7]=[C:5]([N:6]([H:13])[H:14])[H:15])([H:8])([H:9])[H:10]"
C       -2.39503858      -0.16959392       0.15644589
C       -0.92180583       0.08873656       0.08634341
C       -0.36726104       1.31825442      -0.32086071
N        0.94896738       1.21275123      -0.49159596
C        1.33595698      -0.44370913      -0.08504181
N        2.58842581      -0.75420982       0.48094758
C        0.06965613      -0.87850090       0.24527218
H       -2.77246164      -0.55834573      -0.79255060
H       -2.62825670      -0.90243799       0.92979185
H       -2.94915248       0.74265893       0.38841404
H       -0.92524239       2.23563031      -0.47389873
H        1.52389761       2.03848547      -0.54028909
H        2.49450857      -1.17779917       1.39148712
H        3.16871108      -1.32841698      -0.11088950
H        0.82909509      -1.42350329      -0.86357567
15
Frame=11 idx=010497 GeodesicLength=1.3033247869037243 rxn_smarts="[C:1]([c:2]1[c:3]([H:11])[n:4]([H:12])[c:5]([N:6]([H:13])[H:14])[c:7]1[H:15])([H:8])([H:9])[H:10]>>[C:1]([C:2](/[C:3](=[N:4]/[H:12])[H:11])=[C:7]=[C:5]([N:6]([H:13])[H:14])[H:15])([H:8])([H:9])[H:10]"
C       -2.38751899      -0.17013036       0.15644444
C       -0.91545578       0.09398573       0.08268170
C       -0.37048719       1.33258415      -0.32236853
N        0.94305145       1.23896093      -0.50532819
C        1.34604823      -0.45933232      -0.10239394
N        2.59214345      -0.76685973       0.47819710
C        0.07757537      -0.86803202       0.22345565
H       -2.77247181      -0.52695231      -0.80209201
H       -2.61392132      -0.92794156       0.90737999
H       -2.94061295       0.73329080       0.42293105
H       -0.94215324       2.24390520      -0.46182297
H        1.50336859       2.07553957      -0.54706873
H        2.49565346      -1.14291936       1.40905783
H        3.16153790      -1.37814527      -0.08634213
H        0.82324283      -1.47795346      -0.85273127
15
Frame=12 idx=010497 GeodesicLength=1.421680625709156 rxn_smarts="[C:1]([c:2]1[c:3]([H:11])[n:4]([H:12])[c:5]([N:6]([H:13])[H:14])[c:7]1[H:15])([H:8])([H:9])[H:10]>>[C:1]([C:2](/[C:3](=[N:4]/[H:12])[H:11])=[C:7]=[C:5]([N:6]([H:13])[H:14])[H:15])([H:8])([H:9])[H:10]"
C       -2.37944642      -0.17068385       0.15639003
C       -0.90864196       0.09918024       0.07758585
C       -0.37364519       1.34740307      -0.32368578
N        0.93714960       1.26681864      -0.51787422
C        1.35653687      -0.47594663      -0.12156834
N        2.59545339      -0.78021594       0.47516236
C        0.08583776      -0.85755657       0.19887055
H       -2.77315099      -0.49502290      -0.81016452
H       -2.59847820      -0.95279260       0.88419410
H       -2.93077917       0.72279993       0.45778741
H       -0.95930956       2.25190809      -0.45024837
H        1.48214501       2.11423437      -0.55265026
H        2.49620583      -1.10719154       1.42404358
H        3.15345059      -1.42782701      -0.05935259
H        0.81667245      -1.53510727      -0.83848979
15
Frame=13 idx=010497 GeodesicLength=1.5399714416853758 rxn_smarts="[C:1]([c:2]1[c:3]([H:11])[n:4]([H:12])[c:5]([N:6]([H:13])[H:14])[c:7]1[H:15])([H:8])([H:9])[H:10]>>[C:1]([C:2](/[C:3](=[N:4]/[H:12])[H:11])=[C:7]=[C:5]([N:6]([H:13])[H:14])[H:15])([H:8])([H:9])[H:10]"
C       -2.37069004      -0.17131303       0.15620729
C       -0.90126763       0.10432697       0.07099634
C       -0.37671781       1.36269931      -0.32489164
N        0.93130956       1.29633131      -0.52935920
C        1.36742958      -0.49367945      -0.14278762
N        2.59823777      -0.79425295       0.47176375
C        0.09444066      -0.84707399       0.17107155
H       -2.77437764      -0.46275030      -0.81676186
H       -2.58177624      -0.97700766       0.86018956
H       -2.91950651       0.71112766       0.49277295
H       -0.97665211       2.25981244      -0.43844932
H        1.46025288       2.15457783      -0.55712400
H        2.49601418      -1.07041001       1.43630080
H        3.14414889      -1.47744521      -0.02980254
H        0.80915447      -1.59494293      -0.82012606
15
Frame=14 idx=010497 GeodesicLength=1.6582531901378472 rxn_smarts="[C:1]([c:2]1[c:3]([H:11])[n:4]([H:12])[c:5]([N:6]([H:13])[H:14])[c:7]1[H:15])([H:8])([H:9])[H:10]>>[C:1]([C:2](/[C:3](=[N:4]/[H:12])[H:11])=[C:7]=[C:5]([N:6]([H:13])[H:14])[H:15])([H:8])([H:9])[H:10]"
C       -2.36113646      -0.17201567       0.15614788
C       -0.89325195       0.10935870       0.06255712
C       -0.37961802       1.37846450      -0.32602163
N        0.92559365       1.32761653      -0.53963523
C        1.37885859      -0.51265229      -0.16637420
N        2.60024898      -0.80898557       0.46834099
C        0.10339431      -0.83675087       0.13877987
H       -2.77651880      -0.42973122      -0.82147358
H       -2.56357222      -1.00077246       0.83541283
H       -2.90630815       0.69815895       0.52870870
H       -0.99422426       2.26732863      -0.42736959
H        1.43759610       2.19672189      -0.56025121
H        2.49431962      -1.03302390       1.44585899
H        3.13369610      -1.52654954       0.00276280
H        0.80092252      -1.65716768      -0.79744375
15
Frame=15 idx=010497 GeodesicLength=1.7765142403769076 rxn_smarts="[C:1]([c:2]1[c:3]([H:11])[n:4]([H:12])[c:5]([N:6]([H:13])[H:14])[c:7]1[H:15])([H:8])([H:9])[H:10]>>[C:1]([C:2](/[C:3](=[N:4]/[H:12])[H:11])=[C:7]=[C:5]([N:6]([H:13])[H:14])[H:15])([H:8])([H:9])[H:10]"
C       -2.35052765      -0.17287877       0.15642520
C       -0.88442273       0.11419333       0.05180140
C       -0.38229754       1.39460745      -0.32751372
N        0.92009711       1.36073845      -0.54885546
C        1.39097608      -0.53297735      -0.19272274
N        2.60110517      -0.82439559       0.46525707
C        0.11270477      -0.82669967       0.10042107
H       -2.77981816      -0.39598480      -0.82376004
H       -2.54338328      -1.02418476       0.81004017
H       -2.89058021       0.68373051       0.56607120
H       -1.01195292       2.27445893      -0.41676853
H        1.41415039       2.24075708      -0.56197319
H        2.49009790      -0.99513627       1.45288029
H        3.12178207      -1.57494091       0.03899381
H        0.79206901      -1.72128764      -0.77029652
15
Frame=16 idx=010497 GeodesicLength=1.894760418294602 rxn_smarts="[C:1]([c:2]1[c:3]([H:11])[n:4]([H:12])[c:5]([N:6]([H:13])[H:14])[c:7]1[H:15])([H:8])([H:9])[H:10]>>[C:1]([C:2](/[C:3](=[N:4]/[H:12])[H:11])=[C:7]=[C:5]([N:6]([H:13])[H:14])[H:15])([H:8])([H:9])[H:10]"
C       -2.33843486      -0.17404075       0.15749982
C       -0.87450741       0.11873474       0.03812109
C       -0.38466157       1.41107456      -0.32983561
N        0.91495622       1.39585001      -0.55710677
C        1.40404806      -0.55469991      -0.22227149
N        2.60018782      -0.84050211       0.46321526
C        0.12241073      -0.81699482       0.05365624
H       -2.78463182      -0.36135155      -0.82269004
H       -2.52043654      -1.04751871       0.78434725
H       -2.87131166       0.66752917       0.60590626
H       -1.02986281       2.28100125      -0.40727881
H        1.38987926       2.28685547      -0.56213347
H        2.48164446      -0.95722877       1.45776124
H        3.10796139      -1.62228877       0.07981065
H        0.78275874      -1.78641980      -0.73900161
