12
Frame=0 idx=010542 GeodesicLength=0.0 rxn_smarts="[O:1]=[C:2]([C@@:3]1([H:9])[C:4]([H:10])([H:11])[N:5]=[C:6]([H:12])[O:7]1)[H:8]>>[O:1]1[C@@:2]2([H:8])[C@:3]1([H:9])[C:4]([H:10])([H:11])[N:5]=[C:6]([H:12])[O:7]2"
O       -1.61060590      -0.59380481       1.04929574
C       -1.34231278      -0.52433086      -0.15458203
C       -0.65044024       0.73658702      -0.40579871
C        0.59659269       1.03115617       0.27329394
N        1.42947620      -0.04227200       0.69244978
C        1.16751300      -1.15322912       0.10209962
O        0.17616021      -1.38973970      -0.70251678
H       -1.93888596      -1.00272778      -0.93706911
H       -1.12783460       1.53084218      -0.98205220
H        1.15591797       1.74589027      -0.34989245
H        0.29714346       1.65196188       1.13979697
H        1.84727590      -1.99033325       0.27497528
12
Frame=1 idx=010542 GeodesicLength=0.06973398554948716 rxn_smarts="[O:1]=[C:2]([C@@:3]1([H:9])[C:4]([H:10])([H:11])[N:5]=[C:6]([H:12])[O:7]1)[H:8]>>[O:1]1[C@@:2]2([H:8])[C@:3]1([H:9])[C:4]([H:10])([H:11])[N:5]=[C:6]([H:12])[O:7]2"
O       -1.63036848      -0.54183471       1.05001014
C       -1.34737687      -0.53424567      -0.15463361
C       -0.64331242       0.71902325      -0.40816384
C        0.59757324       1.03103205       0.28260161
N        1.43421532      -0.04388569       0.69758666
C        1.16991406      -1.15105048       0.10523042
O        0.17569224      -1.37315235      -0.70588224
H       -1.94972731      -1.01865986      -0.92836736
H       -1.11666221       1.50557213      -0.99786284
H        1.15654638       1.74878874      -0.33637492
H        0.29302780       1.64330897       1.15197226
H        1.86047825      -1.98489638       0.24388374
12
Frame=2 idx=010542 GeodesicLength=0.13950450732886643 rxn_smarts="[O:1]=[C:2]([C@@:3]1([H:9])[C:4]([H:10])([H:11])[N:5]=[C:6]([H:12])[O:7]1)[H:8]>>[O:1]1[C@@:2]2([H:8])[C@:3]1([H:9])[C:4]([H:10])([H:11])[N:5]=[C:6]([H:12])[O:7]2"
O       -1.65096963      -0.48959738       1.04828220
C       -1.35217081      -0.54429267      -0.15359971
C       -0.63644257       0.70155265      -0.40980842
C        0.59845473       1.03081836       0.29186215
N        1.43951674      -0.04537758       0.70182564
C        1.17259828      -1.14898476       0.10802200
O        0.17511965      -1.35707850      -0.70878850
H       -1.95973910      -1.03438058      -0.91915241
H       -1.10538488       1.48008124      -1.01320820
H        1.15655991       1.75180916      -0.32309328
H        0.28953643       1.63430024       1.16443539
H        1.87292126      -1.97885019       0.21322315
12
Frame=3 idx=010542 GeodesicLength=0.20930591503591078 rxn_smarts="[O:1]=[C:2]([C@@:3]1([H:9])[C:4]([H:10])([H:11])[N:5]=[C:6]([H:12])[O:7]1)[H:8]>>[O:1]1[C@@:2]2([H:8])[C@:3]1([H:9])[C:4]([H:10])([H:11])[N:5]=[C:6]([H:12])[O:7]2"
O       -1.67224476      -0.43718068       1.04405813
C       -1.35669783      -0.55443452      -0.15146235
C       -0.62981227       0.68419533      -0.41081318
C        0.59924035       1.03053973       0.30108232
N        1.44538351      -0.04670918       0.70513864
C        1.17566490      -1.14693161       0.11027855
O        0.17438825      -1.34154141      -0.71124353
H       -1.96898246      -1.04990447      -0.90937025
H       -1.09401098       1.45440016      -1.02809429
H        1.15596281       1.75503718      -0.30997629
H        0.28662223       1.62488662       1.17722569
H        1.88448626      -1.97235715       0.18317659
12
Frame=4 idx=010542 GeodesicLength=0.27911571979329625 rxn_smarts="[O:1]=[C:2]([C@@:3]1([H:9])[C:4]([H:10])([H:11])[N:5]=[C:6]([H:12])[O:7]1)[H:8]>>[O:1]1[C@@:2]2([H:8])[C@:3]1([H:9])[C:4]([H:10])([H:11])[N:5]=[C:6]([H:12])[O:7]2"
O       -1.69383465      -0.38483125       1.03731104
C       -1.36089107      -0.56463041      -0.14822854
C       -0.62344388       0.66700956      -0.41122545
C        0.59992222       1.03025367       0.31022212
N        1.45194224      -0.04778063       0.70727407
C        1.17935490      -1.14467500       0.11153120
O        0.17353479      -1.32644366      -0.71345563
H       -1.97746507      -1.06520003      -0.89898121
H       -1.08268274       1.42860899      -1.04242330
H        1.15462708       1.75867520      -0.29696889
H        0.28424802       1.61493942       1.19040270
H        1.89468814      -1.96592588       0.15454189
12
Frame=5 idx=010542 GeodesicLength=0.3488988705212802 rxn_smarts="[O:1]=[C:2]([C@@:3]1([H:9])[C:4]([H:10])([H:11])[N:5]=[C:6]([H:12])[O:7]1)[H:8]>>[O:1]1[C@@:2]2([H:8])[C@:3]1([H:9])[C:4]([H:10])([H:11])[N:5]=[C:6]([H:12])[O:7]2"
O       -1.71564687      -0.33262451       1.02801899
C       -1.36479064      -0.57483692      -0.14388899
C       -0.61731534       0.65002207      -0.41112366
C        0.60050242       1.02999617       0.31930762
N        1.45917457      -0.04853802       0.70824900
C        1.18367108      -1.14215423       0.11172466
O        0.17247735      -1.31183954      -0.71538727
H       -1.98525678      -1.08029714      -0.88795336
H       -1.07136502       1.40274711      -1.05625330
H        1.15257470       1.76279838      -0.28400111
H        0.28236727       1.60445263       1.20400871
H        1.90360725      -1.95972600       0.12729871
12
Frame=6 idx=010542 GeodesicLength=0.4186783469673443 rxn_smarts="[O:1]=[C:2]([C@@:3]1([H:9])[C:4]([H:10])([H:11])[N:5]=[C:6]([H:12])[O:7]1)[H:8]>>[O:1]1[C@@:2]2([H:8])[C@:3]1([H:9])[C:4]([H:10])([H:11])[N:5]=[C:6]([H:12])[O:7]2"
O       -1.73777026      -0.28045037       1.01612004
C       -1.36853698      -0.58494910      -0.13840613
C       -0.61139384       0.63322060      -0.41061320
C        0.60098185       1.02972469       0.32840451
N        1.46699470      -0.04901823       0.70827692
C        1.18851789      -1.13942835       0.11111438
O        0.17109559      -1.29784828      -0.71680152
H       -1.99251064      -1.09518301      -0.87621649
H       -1.05993178       1.37678015      -1.06978715
H        1.14992203       1.76730428      -0.27098907
H        0.28088367       1.59341006       1.21805692
H        1.91174777      -1.95356246       0.10084078
12
Frame=7 idx=010542 GeodesicLength=0.4882979810450051 rxn_smarts="[O:1]=[C:2]([C@@:3]1([H:9])[C:4]([H:10])([H:11])[N:5]=[C:6]([H:12])[O:7]1)[H:8]>>[O:1]1[C@@:2]2([H:8])[C@:3]1([H:9])[C:4]([H:10])([H:11])[N:5]=[C:6]([H:12])[O:7]2"
O       -1.75961491      -0.22867187       1.00168133
C       -1.37197299      -0.59494282      -0.13180963
C       -0.60564620       0.61669447      -0.40972205
C        0.60131046       1.02957525       0.33746116
N        1.47546788      -0.04904014       0.70692281
C        1.19401460      -1.13625514       0.10910661
O        0.16936285      -1.28439123      -0.71797186
H       -1.99912703      -1.10990812      -0.86369713
H       -1.04834419       1.35079171      -1.08297999
H        1.14640357       1.77263031      -0.25776696
H        0.27974440       1.58164354       1.23262725
H        1.91840157      -1.94812596       0.07614845
12
Frame=8 idx=010542 GeodesicLength=0.5579367335881327 rxn_smarts="[O:1]=[C:2]([C@@:3]1([H:9])[C:4]([H:10])([H:11])[N:5]=[C:6]([H:12])[O:7]1)[H:8]>>[O:1]1[C@@:2]2([H:8])[C@:3]1([H:9])[C:4]([H:10])([H:11])[N:5]=[C:6]([H:12])[O:7]2"
O       -1.78131417      -0.17695932       0.98437943
C       -1.37517733      -0.60450207      -0.12405242
C       -0.60011544       0.60042506      -0.40848108
C        0.60137819       1.02927743       0.34652196
N        1.48440268      -0.04885885       0.70455586
C        1.20003636      -1.13280448       0.10632933
O        0.16728394      -1.27146744      -0.71835802
H       -2.00507363      -1.12411598      -0.85022093
H       -1.03662400       1.32471822      -1.09592908
H        1.14198438       1.77813955      -0.24434509
H        0.27875492       1.56902686       1.24746252
H        1.92446409      -1.94287897       0.05213751
12
Frame=9 idx=010542 GeodesicLength=0.6273449147528444 rxn_smarts="[O:1]=[C:2]([C@@:3]1([H:9])[C:4]([H:10])([H:11])[N:5]=[C:6]([H:12])[O:7]1)[H:8]>>[O:1]1[C@@:2]2([H:8])[C@:3]1([H:9])[C:4]([H:10])([H:11])[N:5]=[C:6]([H:12])[O:7]2"
O       -1.80266516      -0.12580857       0.96459174
C       -1.37831414      -0.61380398      -0.11519959
C       -0.59473507       0.58447070      -0.40699080
C        0.60134274       1.02913584       0.35563978
N        1.49390022      -0.04816858       0.70104396
C        1.20658651      -1.12892716       0.10236923
O        0.16469947      -1.25921577      -0.71833694
H       -2.01066720      -1.13822544      -0.83594004
H       -1.02457200       1.29862404      -1.10880451
H        1.13691013       1.78444768      -0.23063433
H        0.27803208       1.55573284       1.26289347
H        1.92948242      -1.93826162       0.02936803
12
Frame=10 idx=010542 GeodesicLength=0.6968902091057443 rxn_smarts="[O:1]=[C:2]([C@@:3]1([H:9])[C:4]([H:10])([H:11])[N:5]=[C:6]([H:12])[O:7]1)[H:8]>>[O:1]1[C@@:2]2([H:8])[C@:3]1([H:9])[C:4]([H:10])([H:11])[N:5]=[C:6]([H:12])[O:7]2"
O       -1.82368709      -0.07491903       0.94202162
C       -1.38149465      -0.62256052      -0.10523493
C       -0.58947659       0.56874164      -0.40531514
C        0.60115000       1.02891976       0.36487337
N        1.50381076      -0.04709811       0.69662080
C        1.21351172      -1.12466627       0.09767194
O        0.16148509      -1.24765527      -0.71741269
H       -2.01600816      -1.15202779      -0.82061474
H       -1.01199847       1.27224118      -1.12180404
H        1.13118903       1.79111312      -0.21645023
H        0.27743769       1.54152193       1.27874293
H        1.93408066      -1.93361064       0.00690111
12
Frame=11 idx=010542 GeodesicLength=0.7662198368072662 rxn_smarts="[O:1]=[C:2]([C@@:3]1([H:9])[C:4]([H:10])([H:11])[N:5]=[C:6]([H:12])[O:7]1)[H:8]>>[O:1]1[C@@:2]2([H:8])[C@:3]1([H:9])[C:4]([H:10])([H:11])[N:5]=[C:6]([H:12])[O:7]2"
O       -1.84413816      -0.02445844       0.91681643
C       -1.38471586      -0.63072818      -0.09417687
C       -0.58432278       0.55334302      -0.40352490
C        0.60075946       1.02873914       0.37422890
N        1.51407877      -0.04563925       0.69125406
C        1.22080985      -1.12011386       0.09215313
O        0.15767694      -1.23690856      -0.71565803
H       -2.02108006      -1.16559283      -0.80423262
H       -0.99886741       1.24577064      -1.13499293
H        1.12475501       1.79835231      -0.20179499
H        0.27685379       1.52646399       1.29508383
H        1.93819045      -1.92922799      -0.01515602
12
Frame=12 idx=010542 GeodesicLength=0.8355441434600444 rxn_smarts="[O:1]=[C:2]([C@@:3]1([H:9])[C:4]([H:10])([H:11])[N:5]=[C:6]([H:12])[O:7]1)[H:8]>>[O:1]1[C@@:2]2([H:8])[C@:3]1([H:9])[C:4]([H:10])([H:11])[N:5]=[C:6]([H:12])[O:7]2"
O       -1.86375247       0.02536850       0.88892477
C       -1.38801519      -0.63817233      -0.08211854
C       -0.57927470       0.53825641      -0.40165639
C        0.60019189       1.02854624       0.38369004
N        1.52470945      -0.04372496       0.68488169
C        1.22846762      -1.11513240       0.08577192
O        0.15325595      -1.22687263      -0.71304218
H       -2.02597530      -1.17883214      -0.78677066
H       -0.98521683       1.21914552      -1.14827733
H        1.11760128       1.80607547      -0.18659391
H        0.27628464       1.51041194       1.31182015
H        1.94172366      -1.92506961      -0.03662957
12
Frame=13 idx=010542 GeodesicLength=0.9047588342629984 rxn_smarts="[O:1]=[C:2]([C@@:3]1([H:9])[C:4]([H:10])([H:11])[N:5]=[C:6]([H:12])[O:7]1)[H:8]>>[O:1]1[C@@:2]2([H:8])[C@:3]1([H:9])[C:4]([H:10])([H:11])[N:5]=[C:6]([H:12])[O:7]2"
O       -1.88256080       0.07460653       0.85837235
C       -1.39152842      -0.64480253      -0.06906991
C       -0.57428597       0.52348504      -0.39978696
C        0.59944992       1.02834625       0.39332486
N        1.53557072      -0.04139928       0.67773393
C        1.23637870      -1.10984563       0.07874570
O        0.14815701      -1.21771675      -0.70936834
H       -2.03084059      -1.19180925      -0.76813003
H       -0.97083458       1.19234017      -1.16184740
H        1.10985898       1.81421959      -0.17080189
H        0.27561969       1.49344224       1.32896072
H        1.94501535      -1.92086638      -0.05813302
12
Frame=14 idx=010542 GeodesicLength=0.9739095147054866 rxn_smarts="[O:1]=[C:2]([C@@:3]1([H:9])[C:4]([H:10])([H:11])[N:5]=[C:6]([H:12])[O:7]1)[H:8]>>[O:1]1[C@@:2]2([H:8])[C@:3]1([H:9])[C:4]([H:10])([H:11])[N:5]=[C:6]([H:12])[O:7]2"
O       -1.89993294       0.12287315       0.82529213
C       -1.39507805      -0.65050389      -0.05517589
C       -0.56933726       0.50908308      -0.39793070
C        0.59844253       1.02810679       0.40303687
N        1.54650268      -0.03865380       0.66963216
C        1.24444837      -1.10414738       0.07095086
O        0.14244317      -1.20927354      -0.70464875
H       -2.03549571      -1.20430528      -0.74831472
H       -0.95578318       1.16545490      -1.17553282
H        1.10128062       1.82279775      -0.15441129
H        0.27480836       1.47535517       1.34629184
H        1.94770142      -1.91678694      -0.07918969
12
Frame=15 idx=010542 GeodesicLength=1.042954622980477 rxn_smarts="[O:1]=[C:2]([C@@:3]1([H:9])[C:4]([H:10])([H:11])[N:5]=[C:6]([H:12])[O:7]1)[H:8]>>[O:1]1[C@@:2]2([H:8])[C@:3]1([H:9])[C:4]([H:10])([H:11])[N:5]=[C:6]([H:12])[O:7]2"
O       -1.91600212       0.16997505       0.78992824
C       -1.39891910      -0.65527568      -0.04057949
C       -0.56448131       0.49503851      -0.39614934
C        0.59730443       1.02791235       0.41288317
N        1.55761587      -0.03539959       0.66076214
C        1.25276779      -1.09802817       0.06240128
O        0.13615405      -1.20160736      -0.69900211
H       -2.04032385      -1.21641074      -0.72750445
H       -0.94017579       1.13848942      -1.18932599
H        1.09218801       1.83175337      -0.13746173
H        0.27388651       1.45641126       1.36387991
H        1.94998551      -1.91285841      -0.09983161
12
Frame=16 idx=010542 GeodesicLength=1.1119550146267636 rxn_smarts="[O:1]=[C:2]([C@@:3]1([H:9])[C:4]([H:10])([H:11])[N:5]=[C:6]([H:12])[O:7]1)[H:8]>>[O:1]1[C@@:2]2([H:8])[C@:3]1([H:9])[C:4]([H:10])([H:11])[N:5]=[C:6]([H:12])[O:7]2"
O       -1.93043288       0.21576338       0.75232673
C       -1.40291131      -0.65901276      -0.02533877
C       -0.55966034       0.48136500      -0.39445548
C        0.59594212       1.02768302       0.42281463
N        1.56865417      -0.03172380       0.65116582
C        1.26117619      -1.09148791       0.05316662
O        0.12931093      -1.19465236      -0.69225882
H       -2.04514711      -1.22795278      -0.70560838
H       -0.92392054       1.11149445      -1.20315875
H        1.08244150       1.84096155      -0.11997403
H        0.27275232       1.43648034       1.38149941
H        1.95179496      -1.90891812      -0.12017897
