12
Frame=0 idx=002501 GeodesicLength=0.0 rxn_smarts="[c:1]1([H:7])[c:2]([H:8])[c:3]([H:9])[c:4]([H:10])[c:5]([H:11])[c:6]1[H:12]>>[C:1]1([H:7])=[C:2]([H:8])[C:3]([H:9])([H:12])[C+:4]([H:10])[C:5]([H:11])=[C-:6]1"
C        1.45749835      -0.32399093      -0.23583561
C        0.52808013      -1.25698281      -0.02061808
C       -0.63783389      -0.53807429       0.61451139
C       -1.22069767       0.55515992      -0.24840967
C       -0.22851010       1.42314374      -0.45562843
C        0.86689856       0.88137913       0.35669938
H        2.41165100      -0.36963655      -0.73920952
H        0.57134215      -2.31829981      -0.21648660
H       -1.32207691      -1.12302985       1.22634753
H       -2.24575019       0.60083547      -0.58578312
H       -0.17077582       2.30578516      -1.07493266
H       -0.00982562       0.16371078       1.37934542
12
Frame=1 idx=002501 GeodesicLength=0.1004818582591785 rxn_smarts="[c:1]1([H:7])[c:2]([H:8])[c:3]([H:9])[c:4]([H:10])[c:5]([H:11])[c:6]1[H:12]>>[C:1]1([H:7])=[C:2]([H:8])[C:3]([H:9])([H:12])[C+:4]([H:10])[C:5]([H:11])=[C-:6]1"
C        1.45473792      -0.32484521      -0.25024352
C        0.52147021      -1.25687546      -0.03058182
C       -0.64098311      -0.54199356       0.60777488
C       -1.21959845       0.54725803      -0.25741900
C       -0.22767790       1.41854795      -0.46960276
C        0.87918219       0.89015577       0.33208229
H        2.42891722      -0.39377376      -0.71065878
H        0.58085355      -2.32333673      -0.19129639
H       -1.33277074      -1.13635281       1.20167826
H       -2.25356003       0.61365628      -0.56273337
H       -0.19749629       2.32716685      -1.05210270
H        0.00692543       0.18039267       1.38310291
12
Frame=2 idx=002501 GeodesicLength=0.20090252617502447 rxn_smarts="[c:1]1([H:7])[c:2]([H:8])[c:3]([H:9])[c:4]([H:10])[c:5]([H:11])[c:6]1[H:12]>>[C:1]1([H:7])=[C:2]([H:8])[C:3]([H:9])([H:12])[C+:4]([H:10])[C:5]([H:11])=[C-:6]1"
C        1.45195582      -0.32589895      -0.26539324
C        0.51493919      -1.25688773      -0.04023891
C       -0.64419711      -0.54597587       0.60102586
C       -1.21865352       0.53947499      -0.26615674
C       -0.22695434       1.41384114      -0.48433035
C        0.89164915       0.89891691       0.30592160
H        2.44458011      -0.41810379      -0.68015775
H        0.58993127      -2.32707689      -0.16649771
H       -1.34345260      -1.14974807       1.17633805
H       -2.26004312       0.62596154      -0.53984221
H       -0.22471975       2.34721692      -1.02717561
H        0.02496489       0.19827980       1.38650701
12
Frame=3 idx=002501 GeodesicLength=0.30127077312070705 rxn_smarts="[c:1]1([H:7])[c:2]([H:8])[c:3]([H:9])[c:4]([H:10])[c:5]([H:11])[c:6]1[H:12]>>[C:1]1([H:7])=[C:2]([H:8])[C:3]([H:9])([H:12])[C+:4]([H:10])[C:5]([H:11])=[C-:6]1"
C        1.44924587      -0.32707627      -0.28081590
C        0.50852301      -1.25693964      -0.04942300
C       -0.64754097      -0.55007109       0.59437848
C       -1.21780817       0.53186925      -0.27444262
C       -0.22632470       1.40917831      -0.49934484
C        0.90424732       0.90766554       0.27862291
H        2.45805917      -0.44203174      -0.64850374
H        0.59854644      -2.32950786      -0.14235028
H       -1.35422868      -1.16333399       1.15025213
H       -2.26516459       0.63770154      -0.51732698
H       -0.25177788       2.36521672      -1.00083597
H        0.04422318       0.21732922       1.38978981
12
Frame=4 idx=002501 GeodesicLength=0.4016094174952691 rxn_smarts="[c:1]1([H:7])[c:2]([H:8])[c:3]([H:9])[c:4]([H:10])[c:5]([H:11])[c:6]1[H:12]>>[C:1]1([H:7])=[C:2]([H:8])[C:3]([H:9])([H:12])[C+:4]([H:10])[C:5]([H:11])=[C-:6]1"
C        1.44667668      -0.32830359      -0.29601262
C        0.50224239      -1.25697129      -0.05797546
C       -0.65111201      -0.55436095       0.58792354
C       -1.21701936       0.52448476      -0.28211412
C       -0.22577015       1.40469131      -0.51415266
C        0.91691642       0.91639676       0.25064346
H        2.46897194      -0.46500704      -0.61664749
H        0.60671912      -2.33068662      -0.11896667
H       -1.36523064      -1.17724817       1.12330940
H       -2.26895361       0.64886375      -0.49535717
H       -0.27802642       2.38068156      -0.97385608
H        0.06458563       0.23745954       1.39320585
12
Frame=5 idx=002501 GeodesicLength=0.5018458530149363 rxn_smarts="[c:1]1([H:7])[c:2]([H:8])[c:3]([H:9])[c:4]([H:10])[c:5]([H:11])[c:6]1[H:12]>>[C:1]1([H:7])=[C:2]([H:8])[C:3]([H:9])([H:12])[C+:4]([H:10])[C:5]([H:11])=[C-:6]1"
C        1.44427599      -0.32951326      -0.31052035
C        0.49611547      -1.25693513      -0.06573910
C       -0.65500874      -0.55893145       0.58174244
C       -1.21626109       0.51735593      -0.28900957
C       -0.22528286       1.40046241      -0.52829399
C        0.92958784       0.92510239       0.22241957
H        2.47721965      -0.48663196      -0.58544018
H        0.61444969      -2.33070254      -0.09646683
H       -1.37656462      -1.19161203       1.09539176
H       -2.27149365       0.65945184      -0.47401735
H       -0.30296705       2.39337084      -0.94705602
H        0.08592936       0.25858294       1.39698964
12
Frame=6 idx=002501 GeodesicLength=0.6021107975065603 rxn_smarts="[c:1]1([H:7])[c:2]([H:8])[c:3]([H:9])[c:4]([H:10])[c:5]([H:11])[c:6]1[H:12]>>[C:1]1([H:7])=[C:2]([H:8])[C:3]([H:9])([H:12])[C+:4]([H:10])[C:5]([H:11])=[C-:6]1"
C        1.44202282      -0.33069100      -0.32418857
C        0.49012185      -1.25684454      -0.07266285
C       -0.65932501      -0.56387494       0.57581647
C       -1.21554930       0.51047210      -0.29508247
C       -0.22486193       1.39649047      -0.54161923
C        0.94223065       0.93376553       0.19409019
H        2.48299335      -0.50677244      -0.55521850
H        0.62175432      -2.32972519      -0.07480598
H       -1.38826336      -1.20645339       1.06649208
H       -2.27294769       0.66947123      -0.45334507
H       -0.32642094       2.40345999      -0.92071217
H        0.10824525       0.28070219       1.40123609
12
Frame=7 idx=002501 GeodesicLength=0.7023634470427571 rxn_smarts="[c:1]1([H:7])[c:2]([H:8])[c:3]([H:9])[c:4]([H:10])[c:5]([H:11])[c:6]1[H:12]>>[C:1]1([H:7])=[C:2]([H:8])[C:3]([H:9])([H:12])[C+:4]([H:10])[C:5]([H:11])=[C-:6]1"
C        1.43988732      -0.33181886      -0.33687580
C        0.48425679      -1.25670087      -0.07867844
C       -0.66413817      -0.56926509       0.57015323
C       -1.21489602       0.50383210      -0.30026324
C       -0.22451085       1.39275675      -0.55398748
C        0.95481075       0.94237182       0.16577573
H        2.48656166      -0.52538613      -0.52621658
H        0.62862261      -2.32790528      -0.05400664
H       -1.40035434      -1.22180940       1.03655516
H       -2.27347240       0.67893742      -0.43331875
H       -0.34830741       2.41115805      -0.89514530
H        0.13154005       0.30382949       1.40600810
12
Frame=8 idx=002501 GeodesicLength=0.802614324217838 rxn_smarts="[c:1]1([H:7])[c:2]([H:8])[c:3]([H:9])[c:4]([H:10])[c:5]([H:11])[c:6]1[H:12]>>[C:1]1([H:7])=[C:2]([H:8])[C:3]([H:9])([H:12])[C+:4]([H:10])[C:5]([H:11])=[C-:6]1"
C        1.43781887      -0.33291403      -0.34860954
C        0.47849827      -1.25653138      -0.08379420
C       -0.66951564      -0.57517637       0.56468090
C       -1.21432338       0.49741902      -0.30456710
C       -0.22423985       1.38921546      -0.56541939
C        0.96730745       0.95088921       0.13742003
H        2.48822848      -0.54255824      -0.49842563
H        0.63511148      -2.32539555      -0.03388253
H       -1.41283812      -1.23768273       1.00551099
H       -2.27323043       0.68790048      -0.41387227
H       -0.36869687       2.41680459      -0.87029672
H        0.15587972       0.32802954       1.41125545
12
Frame=9 idx=002501 GeodesicLength=0.9028635717012434 rxn_smarts="[c:1]1([H:7])[c:2]([H:8])[c:3]([H:9])[c:4]([H:10])[c:5]([H:11])[c:6]1[H:12]>>[C:1]1([H:7])=[C:2]([H:8])[C:3]([H:9])([H:12])[C+:4]([H:10])[C:5]([H:11])=[C-:6]1"
C        1.43577697      -0.33398933      -0.35942295
C        0.47283119      -1.25636036      -0.08802300
C       -0.67552399      -0.58168206       0.55932330
C       -1.21385701       0.49121260      -0.30800592
C       -0.22406232       1.38581655      -0.57594836
C        0.97969888       0.95929050       0.10894967
H        2.48827967      -0.55836456      -0.47172644
H        0.64125586      -2.32232457      -0.01432097
H       -1.42571435      -1.25408843       0.97326695
H       -2.27237032       0.69643668      -0.39485585
H       -0.38766872       2.42067522      -0.84615551
H        0.18135412       0.35337776       1.41691909
12
Frame=10 idx=002501 GeodesicLength=1.0031134793732475 rxn_smarts="[c:1]1([H:7])[c:2]([H:8])[c:3]([H:9])[c:4]([H:10])[c:5]([H:11])[c:6]1[H:12]>>[C:1]1([H:7])=[C:2]([H:8])[C:3]([H:9])([H:12])[C+:4]([H:10])[C:5]([H:11])=[C-:6]1"
C        1.43371947      -0.33506488      -0.36936590
C        0.46723875      -1.25621386      -0.09138046
C       -0.68222822      -0.58885634       0.55398506
C       -1.21352085       0.48519533      -0.31059710
C       -0.22399281       1.38251290      -0.58562027
C        0.99196457       0.96754217       0.08026318
H        2.48694896      -0.57288845      -0.44598874
H        0.64709986      -2.31879702       0.00483727
H       -1.43898004      -1.27103603       0.93970947
H       -2.27101398       0.70460892      -0.37614272
H       -0.40531188       2.42302295      -0.82262075
H        0.20807618       0.37997430       1.42292097
12
Frame=11 idx=002501 GeodesicLength=1.1034304716005356 rxn_smarts="[c:1]1([H:7])[c:2]([H:8])[c:3]([H:9])[c:4]([H:10])[c:5]([H:11])[c:6]1[H:12]>>[C:1]1([H:7])=[C:2]([H:8])[C:3]([H:9])([H:12])[C+:4]([H:10])[C:5]([H:11])=[C-:6]1"
C        1.43161810      -0.33615555      -0.37850878
C        0.46169974      -1.25612060      -0.09388182
C       -0.68970770      -0.59678624       0.54857980
C       -1.21334476       0.47934601      -0.31235814
C       -0.22403853       1.37926738      -0.59450161
C        1.00410066       0.97561909       0.05122758
H        2.48444129      -0.58620010      -0.42104664
H        0.65267988      -2.31490029       0.02376614
H       -1.45266766      -1.28857086       0.90469544
H       -2.26927444       0.71247348      -0.35759353
H       -0.42170783       2.42407398      -0.79954827
H        0.23620123       0.40795371       1.42916984
12
Frame=12 idx=002501 GeodesicLength=1.2036403422659618 rxn_smarts="[c:1]1([H:7])[c:2]([H:8])[c:3]([H:9])[c:4]([H:10])[c:5]([H:11])[c:6]1[H:12]>>[C:1]1([H:7])=[C:2]([H:8])[C:3]([H:9])([H:12])[C+:4]([H:10])[C:5]([H:11])=[C-:6]1"
C        1.42940428      -0.33728815      -0.38678935
C        0.45621233      -1.25610706      -0.09556580
C       -0.69802141      -0.60556971       0.54286393
C       -1.21335213       0.47365800      -0.31332436
C       -0.22424723       1.37602242      -0.60253716
C        1.01601590       0.98344661       0.02183655
H        2.48088291      -0.59834843      -0.39687771
H        0.65814191      -2.31064996       0.04277279
H       -1.46672169      -1.30670827       0.86790438
H       -2.26718906       0.72025551      -0.33882368
H       -0.43689823       2.42394131      -0.77705261
H        0.26577242       0.43734773       1.43559302
12
Frame=13 idx=002501 GeodesicLength=1.303754760964996 rxn_smarts="[c:1]1([H:7])[c:2]([H:8])[c:3]([H:9])[c:4]([H:10])[c:5]([H:11])[c:6]1[H:12]>>[C:1]1([H:7])=[C:2]([H:8])[C:3]([H:9])([H:12])[C+:4]([H:10])[C:5]([H:11])=[C-:6]1"
C        1.42705791      -0.33851695      -0.39441271
C        0.45076182      -1.25617665      -0.09635931
C       -0.70722540      -0.61523623       0.53691451
C       -1.21353572       0.46812272      -0.31342429
C       -0.22462445       1.37273458      -0.60991541
C        1.02772712       0.99098883      -0.00829150
H        2.47635675      -0.60948043      -0.37297563
H        0.66338017      -2.30612853       0.06182508
H       -1.48114956      -1.32542929       0.82923072
H       -2.26483093       0.72778006      -0.32000705
H       -0.45108946       2.42281425      -0.75448497
H        0.29717174       0.46852763       1.44190057
12
Frame=14 idx=002501 GeodesicLength=1.4039190929085152 rxn_smarts="[c:1]1([H:7])[c:2]([H:8])[c:3]([H:9])[c:4]([H:10])[c:5]([H:11])[c:6]1[H:12]>>[C:1]1([H:7])=[C:2]([H:8])[C:3]([H:9])([H:12])[C+:4]([H:10])[C:5]([H:11])=[C-:6]1"
C        1.42455755      -0.33983578      -0.40133036
C        0.44532008      -1.25637010      -0.09627005
C       -0.71744852      -0.62594571       0.53052216
C       -1.21395901       0.46271658      -0.31266786
C       -0.22519010       1.36938236      -0.61660087
C        1.03921205       0.99821221      -0.03919223
H        2.47100258      -0.61954498      -0.34933680
H        0.66847473      -2.30135556       0.08123512
H       -1.49602560      -1.34487369       0.78830714
H       -2.26227550       0.73521645      -0.30075431
H       -0.46422826       2.42079790      -0.73197670
H        0.33056001       0.50160030       1.44806475
12
Frame=15 idx=002501 GeodesicLength=1.5040880465082056 rxn_smarts="[c:1]1([H:7])[c:2]([H:8])[c:3]([H:9])[c:4]([H:10])[c:5]([H:11])[c:6]1[H:12]>>[C:1]1([H:7])=[C:2]([H:8])[C:3]([H:9])([H:12])[C+:4]([H:10])[C:5]([H:11])=[C-:6]1"
C        1.42185595      -0.34127539      -0.40753774
C        0.43987260      -1.25670155      -0.09523295
C       -0.72879090      -0.63781153       0.52355162
C       -1.21464157       0.45743384      -0.31099081
C       -0.22597530       1.36592095      -0.62258758
C        1.05041635       1.00504742      -0.07102414
H        2.46486304      -0.62856210      -0.32579045
H        0.67343858      -2.29633762       0.10120343
H       -1.51134514      -1.36508783       0.74473996
H       -2.25954601       0.74260453      -0.28086330
H       -0.47635602       2.41795924      -0.70937203
H        0.36620842       0.53681004       1.45390398
12
Frame=16 idx=002501 GeodesicLength=1.604255769129563 rxn_smarts="[c:1]1([H:7])[c:2]([H:8])[c:3]([H:9])[c:4]([H:10])[c:5]([H:11])[c:6]1[H:12]>>[C:1]1([H:7])=[C:2]([H:8])[C:3]([H:9])([H:12])[C+:4]([H:10])[C:5]([H:11])=[C-:6]1"
C        1.41890698      -0.34286917      -0.41302116
C        0.43439997      -1.25719368      -0.09315698
C       -0.74138132      -0.65097365       0.51584565
C       -1.21561122       0.45226708      -0.30830523
C       -0.22701168       1.36231308      -0.62784847
C        1.06128583       1.01141824      -0.10395833
H        2.45797423      -0.63653758      -0.30220803
H        0.67828588      -2.29107026       0.12200843
H       -1.52711857      -1.38613017       0.69803943
H       -2.25667291       0.74996737      -0.26012257
H       -0.48748956       2.41436321      -0.68648262
H        0.40443238       0.57444553       1.45920988
