13
Frame=0 idx=003717 GeodesicLength=0.0 rxn_smarts="[C:1](/[C:2](=[N:3]/[O:4][H:10])[C:5]([O:6][H:13])([H:11])[H:12])([H:7])([H:8])[H:9]>>[C:1](=[C:2]([N:3]=[O:4])[C:5]([O:6][H:13])([H:11])[H:12])([H:7])[H:9].[H:8][H:10]"
C       -0.87296703       1.27229726       0.18414529
C       -0.12558181       0.38691888      -0.58273634
N       -1.03138552      -0.52025419      -1.04781639
O       -0.87909228      -1.52250315      -0.23990131
C        1.26216228      -0.01232136      -0.13844373
O        1.81336870      -1.08178564      -0.84609620
H       -1.88052642       1.50529875      -0.14533201
H       -1.17607596       0.10397964       1.13569498
H       -0.40440591       1.95760187       0.88136770
H       -1.11694249      -0.88861916       0.87000830
H        1.25068875      -0.20221202       0.94705009
H        1.91526568       0.84820693      -0.30528412
H        1.24549197      -1.84660787      -0.71265628
13
Frame=1 idx=003717 GeodesicLength=0.08775862301577034 rxn_smarts="[C:1](/[C:2](=[N:3]/[O:4][H:10])[C:5]([O:6][H:13])([H:11])[H:12])([H:7])([H:8])[H:9]>>[C:1](=[C:2]([N:3]=[O:4])[C:5]([O:6][H:13])([H:11])[H:12])([H:7])[H:9].[H:8][H:10]"
C       -0.87286074       1.27586651       0.18692507
C       -0.12655726       0.38824825      -0.58218552
N       -1.02760572      -0.52333561      -1.04784439
O       -0.87836949      -1.52880611      -0.24191481
C        1.26127114      -0.01214478      -0.13821061
O        1.81631100      -1.07466948      -0.85486499
H       -1.87568921       1.51519996      -0.15271312
H       -1.18474530       0.09701504       1.16223820
H       -0.39354753       1.98280593       0.85483306
H       -1.13290063      -0.91250401       0.88243384
H        1.25034999      -0.21753194       0.94422267
H        1.91152607       0.85262789      -0.29200125
H        1.25281767      -1.84277167      -0.72091815
13
Frame=2 idx=003717 GeodesicLength=0.17545185223083531 rxn_smarts="[C:1](/[C:2](=[N:3]/[O:4][H:10])[C:5]([O:6][H:13])([H:11])[H:12])([H:7])([H:8])[H:9]>>[C:1](=[C:2]([N:3]=[O:4])[C:5]([O:6][H:13])([H:11])[H:12])([H:7])[H:9].[H:8][H:10]"
C       -0.87253058       1.27963225       0.19000044
C       -0.12746485       0.38980146      -0.58162321
N       -1.02378823      -0.52614116      -1.04783599
O       -0.87769140      -1.53492768      -0.24402375
C        1.26038110      -0.01192040      -0.13785942
O        1.81921802      -1.06740006      -0.86350729
H       -1.87059047       1.52506175      -0.15969481
H       -1.19334007       0.08964212       1.18957708
H       -0.38281640       2.00823090       0.82665740
H       -1.14926371      -0.93727869       0.89471842
H        1.24997383      -0.23281067       0.94128249
H        1.90783884       0.85686313      -0.27843597
H        1.26007392      -1.83875296      -0.72925538
13
Frame=3 idx=003717 GeodesicLength=0.2630859182739805 rxn_smarts="[C:1](/[C:2](=[N:3]/[O:4][H:10])[C:5]([O:6][H:13])([H:11])[H:12])([H:7])([H:8])[H:9]>>[C:1](=[C:2]([N:3]=[O:4])[C:5]([O:6][H:13])([H:11])[H:12])([H:7])[H:9].[H:8][H:10]"
C       -0.87192693       1.28365064       0.19334632
C       -0.12828812       0.39159508      -0.58106188
N       -1.01992837      -0.52864830      -1.04778915
O       -0.87706789      -1.54083078      -0.24621271
C        1.25950204      -0.01164456      -0.13739295
O        1.82209023      -1.05998729      -0.87201078
H       -1.86523907       1.53486003      -0.16623244
H       -1.20185053       0.08186728       1.21773738
H       -0.37227564       2.03378776       0.79680598
H       -1.16604941      -0.96296910       0.90682860
H        1.24956211      -0.24803217       0.93822684
H        1.90422291       0.86090393      -0.26459809
H        1.26724867      -1.83455252      -0.73764709
13
Frame=4 idx=003717 GeodesicLength=0.35067486729971853 rxn_smarts="[C:1](/[C:2](=[N:3]/[O:4][H:10])[C:5]([O:6][H:13])([H:11])[H:12])([H:7])([H:8])[H:9]>>[C:1](=[C:2]([N:3]=[O:4])[C:5]([O:6][H:13])([H:11])[H:12])([H:7])[H:9].[H:8][H:10]"
C       -0.87099985       1.28798240       0.19692343
C       -0.12900947       0.39364504      -0.58052028
N       -1.01602145      -0.53083691      -1.04770741
O       -0.87651267      -1.54647968      -0.24846685
C        1.25864347      -0.01131369      -0.13681546
O        1.82493025      -1.05244272      -0.88036135
H       -1.85965233       1.54456550      -0.17228425
H       -1.21025655       0.07371545       1.24674655
H       -0.36198883       2.05937046       0.76526953
H       -1.18327557      -0.98959769       0.91873248
H        1.24911446      -0.26317884       0.93505297
H        1.90069758       0.86474316      -0.25049772
H        1.27433096      -1.83017247      -0.74607164
13
Frame=5 idx=003717 GeodesicLength=0.43821640201473067 rxn_smarts="[C:1](/[C:2](=[N:3]/[O:4][H:10])[C:5]([O:6][H:13])([H:11])[H:12])([H:7])([H:8])[H:9]>>[C:1](=[C:2]([N:3]=[O:4])[C:5]([O:6][H:13])([H:11])[H:12])([H:7])[H:9].[H:8][H:10]"
C       -0.86969251       1.29269860       0.20067452
C       -0.12960809       0.39596658      -0.58002277
N       -1.01206070      -0.53268981      -1.04759069
O       -0.87603450      -1.55183518      -0.25076098
C        1.25781843      -0.01092177      -0.13613783
O        1.82773993      -1.04478624      -0.88854571
H       -1.85385429       1.55414966      -0.17782081
H       -1.21854674       0.06521769       1.27662243
H       -0.35202723       2.08484647       0.73209392
H       -1.20095892      -1.01717742       0.93039324
H        1.24863389      -0.27822206       0.93175425
H        1.89728237       0.86837418      -0.23616054
H        1.28130836      -1.82562070      -0.75449904
13
Frame=6 idx=003717 GeodesicLength=0.5257462251521178 rxn_smarts="[C:1](/[C:2](=[N:3]/[O:4][H:10])[C:5]([O:6][H:13])([H:11])[H:12])([H:7])([H:8])[H:9]>>[C:1](=[C:2]([N:3]=[O:4])[C:5]([O:6][H:13])([H:11])[H:12])([H:7])[H:9].[H:8][H:10]"
C       -0.86795425       1.29787251       0.20452125
C       -0.13006427       0.39857410      -0.57960208
N       -1.00804326      -0.53419319      -1.04744676
O       -0.87565009      -1.55686245      -0.25307272
C        1.25703704      -0.01046322      -0.13536937
O        1.83052581      -1.03703362      -0.89654693
H       -1.84787808       1.56358396      -0.18281817
H       -1.22668904       0.05642018       1.30739712
H       -0.34244788       2.11008486       0.69734205
H       -1.21911815      -1.04573711       0.94177773
H        1.24811475      -0.29313540       0.92832655
H        1.89399591       0.87179283      -0.22160554
H        1.28817152      -1.82090346      -0.76290313
13
Frame=7 idx=003717 GeodesicLength=0.613277603697561 rxn_smarts="[C:1](/[C:2](=[N:3]/[O:4][H:10])[C:5]([O:6][H:13])([H:11])[H:12])([H:7])([H:8])[H:9]>>[C:1](=[C:2]([N:3]=[O:4])[C:5]([O:6][H:13])([H:11])[H:12])([H:7])[H:9].[H:8][H:10]"
C       -0.86572760       1.30358523       0.20837390
C       -0.13035623       0.40148079      -0.57929487
N       -1.00396382      -0.53533806      -1.04727531
O       -0.87536753      -1.56152419      -0.25536840
C        1.25631049      -0.00993055      -0.13452746
O        1.83329102      -1.02921093      -0.90434980
H       -1.84175659       1.57284417      -0.18727061
H       -1.23466682       0.04737658       1.33909747
H       -0.33331464       2.13493404       0.66113593
H       -1.23776993      -1.07530320       0.95283701
H        1.24755767      -0.30787781       0.92476174
H        1.89085485       0.87499816      -0.20687293
H        1.29490913      -1.81603424      -0.77124667
13
Frame=8 idx=003717 GeodesicLength=0.7008323237283268 rxn_smarts="[C:1](/[C:2](=[N:3]/[O:4][H:10])[C:5]([O:6][H:13])([H:11])[H:12])([H:7])([H:8])[H:9]>>[C:1](=[C:2]([N:3]=[O:4])[C:5]([O:6][H:13])([H:11])[H:12])([H:7])[H:9].[H:8][H:10]"
C       -0.86296851       1.30991174       0.21213297
C       -0.13046697       0.40469653      -0.57914004
N       -0.99982407      -0.53612131      -1.04707907
O       -0.87519930      -1.56579288      -0.25761684
C        1.25564725      -0.00931556      -0.13362646
O        1.83604247      -1.02133849      -0.91193940
H       -1.83552690       1.58192006      -0.19119011
H       -1.24244438       0.03813797       1.37176154
H       -0.32466781       2.15926373       0.62360706
H       -1.25693300      -1.10591738       0.96352808
H        1.24695564      -0.32241297       0.92105601
H        1.88787109       0.87799318      -0.19199429
H        1.30151450      -1.81102461      -0.77949946
13
Frame=9 idx=003717 GeodesicLength=0.7886265258497593 rxn_smarts="[C:1](/[C:2](=[N:3]/[O:4][H:10])[C:5]([O:6][H:13])([H:11])[H:12])([H:7])([H:8])[H:9]>>[C:1](=[C:2]([N:3]=[O:4])[C:5]([O:6][H:13])([H:11])[H:12])([H:7])[H:9].[H:8][H:10]"
C       -0.85969217       1.31695117       0.21555163
C       -0.13040473       0.40820836      -0.57919555
N       -0.99566781      -0.53656786      -1.04681915
O       -0.87512537      -1.56968406      -0.25978370
C        1.25502471      -0.00859152      -0.13267376
O        1.83878117      -1.01340843      -0.91928151
H       -1.82923348       1.59084401      -0.19461764
H       -1.24994749       0.02865827       1.40550615
H       -0.31631159       2.18304989       0.58494941
H       -1.27668864      -1.13773548       0.97376321
H        1.24626522      -0.33667014       0.91721689
H        1.88500605       0.88081373      -0.17700032
H        1.30799415      -1.80586794      -0.78761566
13
Frame=10 idx=003717 GeodesicLength=0.8764520222791108 rxn_smarts="[C:1](/[C:2](=[N:3]/[O:4][H:10])[C:5]([O:6][H:13])([H:11])[H:12])([H:7])([H:8])[H:9]>>[C:1](=[C:2]([N:3]=[O:4])[C:5]([O:6][H:13])([H:11])[H:12])([H:7])[H:9].[H:8][H:10]"
C       -0.85582838       1.32471475       0.21868846
C       -0.13014133       0.41204042      -0.57947245
N       -0.99145874      -0.53665336      -1.04653599
O       -0.87518371      -1.57314070      -0.26185098
C        1.25447044      -0.00776555      -0.13168764
O        1.84151602      -1.00546340      -0.92637679
H       -1.82288845       1.59960792      -0.19756127
H       -1.25717772       0.01904529       1.44032448
H       -0.30844896       2.20615609       0.54521356
H       -1.29700129      -1.17075026       0.98352509
H        1.24551024      -0.35064301       0.91323558
H        1.88230085       0.88344354      -0.16192904
H        1.31433104      -1.80059173      -0.79557300
13
Frame=11 idx=003717 GeodesicLength=0.9642930994517079 rxn_smarts="[C:1](/[C:2](=[N:3]/[O:4][H:10])[C:5]([O:6][H:13])([H:11])[H:12])([H:7])([H:8])[H:9]>>[C:1](=[C:2]([N:3]=[O:4])[C:5]([O:6][H:13])([H:11])[H:12])([H:7])[H:9].[H:8][H:10]"
C       -0.85135816       1.33324456       0.22146200
C       -0.12967288       0.41619230      -0.57999845
N       -0.98720118      -0.53638579      -1.04622560
O       -0.87537805      -1.57615039      -0.26379212
C        1.25398351      -0.00682739      -0.13068139
O        1.84424813      -0.99751938      -0.93321223
H       -1.81651301       1.60824795      -0.20007884
H       -1.26409160       0.00931086       1.47628389
H       -0.30106841       2.22854266       0.50453171
H       -1.31790051      -1.20505192       0.99275521
H        1.24468264      -0.36429063       0.90911452
H        1.87974812       0.88589350      -0.14682187
H        1.32052139      -1.79520633      -0.80333684
13
Frame=12 idx=003717 GeodesicLength=1.052138221301858 rxn_smarts="[C:1](/[C:2](=[N:3]/[O:4][H:10])[C:5]([O:6][H:13])([H:11])[H:12])([H:7])([H:8])[H:9]>>[C:1](=[C:2]([N:3]=[O:4])[C:5]([O:6][H:13])([H:11])[H:12])([H:7])[H:9].[H:8][H:10]"
C       -0.84627164       1.34258027       0.22378753
C       -0.12900010       0.42066675      -0.58080065
N       -0.98290717      -0.53577062      -1.04588261
O       -0.87571830      -1.57870285      -0.26558150
C        1.25355753      -0.00576400      -0.12966514
O        1.84697796      -0.98959096      -0.93977145
H       -1.81011465       1.61681061      -0.20222853
H       -1.27064460      -0.00055355       1.51346812
H       -0.29413751       2.25019037       0.46301186
H       -1.33940722      -1.24075594       1.00138880
H        1.24376712      -0.37757017       0.90486070
H        1.87733780       0.88818304      -0.13171660
H        1.32656078      -1.78972295      -0.81087052
13
Frame=13 idx=003717 GeodesicLength=1.1399584804277962 rxn_smarts="[C:1](/[C:2](=[N:3]/[O:4][H:10])[C:5]([O:6][H:13])([H:11])[H:12])([H:7])([H:8])[H:9]>>[C:1](=[C:2]([N:3]=[O:4])[C:5]([O:6][H:13])([H:11])[H:12])([H:7])[H:9].[H:8][H:10]"
C       -0.84056484       1.35275424       0.22559992
C       -0.12812710       0.42546447      -0.58189498
N       -0.97859017      -0.53481423      -1.04549357
O       -0.87621104      -1.58079134      -0.26719074
C        1.25318622      -0.00456219      -0.12864606
O        1.84970198      -0.98168963      -0.94604072
H       -1.80369206       1.62535634      -0.20408100
H       -1.27678358      -0.01056640       1.55197351
H       -0.28761899       2.27110323       0.42073402
H       -1.36155305      -1.27799558       1.00934400
H        1.24275361      -0.39044118       0.90048454
H        1.87505574       0.89033246      -0.11665054
H        1.33244330      -1.78415019      -0.81813840
13
Frame=14 idx=003717 GeodesicLength=1.2277627121279129 rxn_smarts="[C:1](/[C:2](=[N:3]/[O:4][H:10])[C:5]([O:6][H:13])([H:11])[H:12])([H:7])([H:8])[H:9]>>[C:1](=[C:2]([N:3]=[O:4])[C:5]([O:6][H:13])([H:11])[H:12])([H:7])[H:9].[H:8][H:10]"
C       -0.83423507       1.36381061       0.22682360
C       -0.12706127       0.43058976      -0.58329660
N       -0.97427193      -0.53351440      -1.04504197
O       -0.87687059      -1.58240406      -0.26859312
C        1.25285616      -0.00320744      -0.12762401
O        1.85241285      -0.97382687      -0.95199786
H       -1.79723721       1.63395711      -0.20570449
H       -1.28242995      -0.02076414       1.59193084
H       -0.28146251       2.29131137       0.37773445
H       -1.38436176      -1.31695899       1.01651626
H        1.24161953      -0.40286245       0.89600584
H        1.87288467       0.89236604      -0.10165300
H        1.33815707      -1.77849655      -0.82509995
13
Frame=15 idx=003717 GeodesicLength=1.3155179948513855 rxn_smarts="[C:1](/[C:2](=[N:3]/[O:4][H:10])[C:5]([O:6][H:13])([H:11])[H:12])([H:7])([H:8])[H:9]>>[C:1](=[C:2]([N:3]=[O:4])[C:5]([O:6][H:13])([H:11])[H:12])([H:7])[H:9].[H:8][H:10]"
C       -0.82727919       1.37579379       0.22738761
C       -0.12581031       0.43604884      -0.58501811
N       -0.96997359      -0.53186859      -1.04450669
O       -0.87771315      -1.58352456      -0.26975172
C        1.25255573      -0.00168203      -0.12660144
O        1.85509812      -0.96601773      -0.95762029
H       -1.79073042       1.64269531      -0.20717725
H       -1.28750770      -0.03121543       1.63347258
H       -0.27562265       2.31084230       0.33404742
H       -1.40785848      -1.35782584       1.02279149
H        1.24034847      -0.41478445       0.89144511
H        1.87080810       0.89431137      -0.08676415
H        1.34368506      -1.77277298      -0.83170459
13
Frame=16 idx=003717 GeodesicLength=1.4031985509131775 rxn_smarts="[C:1](/[C:2](=[N:3]/[O:4][H:10])[C:5]([O:6][H:13])([H:11])[H:12])([H:7])([H:8])[H:9]>>[C:1](=[C:2]([N:3]=[O:4])[C:5]([O:6][H:13])([H:11])[H:12])([H:7])[H:9].[H:8][H:10]"
C       -0.81969932       1.38874462       0.22723980
C       -0.12438569       0.44185032      -0.58705975
N       -0.96572360      -0.52986696      -1.04385698
O       -0.87875864      -1.58413685      -0.27062913
C        1.25226832       0.00003141      -0.12556920
O        1.85774230      -0.95827112      -0.96288187
H       -1.78414646       1.65166166      -0.20856617
H       -1.29191920      -0.04200544       1.67675626
H       -0.27003659       2.32976046       0.28962168
H       -1.43207595      -1.40081544       1.02802683
H        1.23891944      -0.42616594       0.88683252
H        1.86880793       0.89619837      -0.07200749
H        1.34900747      -1.76698509      -0.83790652
