15
Frame=0 idx=008708 GeodesicLength=0.0 rxn_smarts="[C:1]([C:2]([C:3]([H:11])([H:12])[H:13])([C:4]#[C:5][H:14])[C:6]#[C:7][H:15])([H:8])([H:9])[H:10]>>[C:1]([C:2]1([C:3]([H:11])([H:12])[H:13])[C-:4]=[C:5]([H:14])[C:7]([H:15])=[C+:6]1)([H:8])([H:9])[H:10]"
C       -1.15055037      -0.72849907      -1.05897845
C       -0.35758938       0.00033114       0.01678849
C       -1.11124238       0.12023880       1.33307030
C        1.01753008      -0.45882219       0.14900666
C        2.24792827      -0.40155155       0.05866208
C        0.18697748       1.36874868      -0.46976416
C        1.51098600       1.21079976      -0.45726493
H       -0.57893716      -0.80846311      -1.98327247
H       -2.05057640      -0.14897680      -1.26806358
H       -1.44256015      -1.72892284      -0.73135420
H       -1.41566199      -0.85886784       1.70988595
H       -0.50669814       0.62170227       2.08822894
H       -2.00206924       0.72468101       1.15837381
H        3.26476288      -0.71963598       0.11468671
H        2.38770045       1.80723769      -0.66000522
15
Frame=1 idx=008708 GeodesicLength=0.08172312086800368 rxn_smarts="[C:1]([C:2]([C:3]([H:11])([H:12])[H:13])([C:4]#[C:5][H:14])[C:6]#[C:7][H:15])([H:8])([H:9])[H:10]>>[C:1]([C:2]1([C:3]([H:11])([H:12])[H:13])[C-:4]=[C:5]([H:14])[C:7]([H:15])=[C+:6]1)([H:8])([H:9])[H:10]"
C       -1.15103468      -0.72788813      -1.05987204
C       -0.35603893      -0.00229772       0.01700836
C       -1.10993741       0.12011786       1.33330478
C        1.01557580      -0.47390746       0.15307863
C        2.24689963      -0.40604324       0.05898899
C        0.19203102       1.35996128      -0.46771584
C        1.51458582       1.22812961      -0.46380572
H       -0.57932241      -0.80909335      -1.98393744
H       -2.05032440      -0.14702522      -1.26838095
H       -1.44346289      -1.72778961      -0.73141552
H       -1.41415700      -0.85929238       1.70916940
H       -0.50443862       0.62025781       2.08851019
H       -2.00043539       0.72511833       1.15885304
H        3.25913472      -0.73746018       0.12752428
H        2.38092475       1.83721241      -0.67131016
15
Frame=2 idx=008708 GeodesicLength=0.1634157999752889 rxn_smarts="[C:1]([C:2]([C:3]([H:11])([H:12])[H:13])([C:4]#[C:5][H:14])[C:6]#[C:7][H:15])([H:8])([H:9])[H:10]>>[C:1]([C:2]1([C:3]([H:11])([H:12])[H:13])[C-:4]=[C:5]([H:14])[C:7]([H:15])=[C+:6]1)([H:8])([H:9])[H:10]"
C       -1.15127314      -0.72732636      -1.06072078
C       -0.35426265      -0.00515270       0.01740197
C       -1.10867892       0.12004771       1.33353397
C        1.01356036      -0.48965955       0.15765104
C        2.24574239      -0.41058392       0.06006912
C        0.19761811       1.35083189      -0.46545961
C        1.51826267       1.24581711      -0.47025226
H       -0.57928461      -0.80997966      -1.98442960
H       -2.04962474      -0.14488884      -1.26888145
H       -1.44449578      -1.72660800      -0.73145761
H       -1.41308437      -0.85955539       1.70843566
H       -0.50223963       0.61871653       2.08889412
H       -1.99864600       0.72584793       1.15910971
H        3.25309948      -0.75571480       0.13906546
H        2.37330682       1.86820806      -0.68295973
15
Frame=3 idx=008708 GeodesicLength=0.2450868157231217 rxn_smarts="[C:1]([C:2]([C:3]([H:11])([H:12])[H:13])([C:4]#[C:5][H:14])[C:6]#[C:7][H:15])([H:8])([H:9])[H:10]>>[C:1]([C:2]1([C:3]([H:11])([H:12])[H:13])[C-:4]=[C:5]([H:14])[C:7]([H:15])=[C+:6]1)([H:8])([H:9])[H:10]"
C       -1.15117486      -0.72686644      -1.06149388
C       -0.35224502      -0.00823292       0.01801853
C       -1.10753988       0.12009902       1.33374691
C        1.01147432      -0.50607397       0.16289247
C        2.24443807      -0.41513809       0.06214760
C        0.20378358       1.34133604      -0.46297674
C        1.52201957       1.26389723      -0.47651427
H       -0.57867372      -0.81122138      -1.98467450
H       -2.04837094      -0.14263363      -1.26962281
H       -1.44558749      -1.72541267      -0.73142067
H       -1.41253884      -0.85956619       1.70770430
H       -0.50022763       0.61718963       2.08938495
H       -1.99676078       0.72692926       1.15904060
H        3.24664538      -0.77464482       0.14847615
H        2.36475826       1.90033892      -0.69470862
15
Frame=4 idx=008708 GeodesicLength=0.326753914541047 rxn_smarts="[C:1]([C:2]([C:3]([H:11])([H:12])[H:13])([C:4]#[C:5][H:14])[C:6]#[C:7][H:15])([H:8])([H:9])[H:10]>>[C:1]([C:2]1([C:3]([H:11])([H:12])[H:13])[C-:4]=[C:5]([H:14])[C:7]([H:15])=[C+:6]1)([H:8])([H:9])[H:10]"
C       -1.15115721      -0.72627788      -1.06233591
C       -0.34998248      -0.01163901       0.01861852
C       -1.10610313       0.12001156       1.33395583
C        1.00928066      -0.52347074       0.16805437
C        2.24291779      -0.42014266       0.06411299
C        0.21057018       1.33139258      -0.46039963
C        1.52583447       1.28217523      -0.48315409
H       -0.57819813      -0.81247963      -1.98500638
H       -2.04696088      -0.13986511      -1.27036099
H       -1.44719149      -1.72399723      -0.73156227
H       -1.41212228      -0.85961586       1.70688387
H       -0.49769230       0.61518125       2.08991161
H       -1.99432987       0.72825720       1.15904669
H        3.23999049      -0.79291600       0.15951566
H        2.35514416       1.93338630      -0.70728027
15
Frame=5 idx=008708 GeodesicLength=0.40840072206345196 rxn_smarts="[C:1]([C:2]([C:3]([H:11])([H:12])[H:13])([C:4]#[C:5][H:14])[C:6]#[C:7][H:15])([H:8])([H:9])[H:10]>>[C:1]([C:2]1([C:3]([H:11])([H:12])[H:13])[C-:4]=[C:5]([H:14])[C:7]([H:15])=[C+:6]1)([H:8])([H:9])[H:10]"
C       -1.15086861      -0.72581715      -1.06310742
C       -0.34745060      -0.01532313       0.01938081
C       -1.10468728       0.12008597       1.33411475
C        1.00698577      -0.54166731       0.17377864
C        2.24119771      -0.42533372       0.06688458
C        0.21802483       1.32097576      -0.45771931
C        1.52971599       1.30077740      -0.48982892
H       -0.57726598      -0.81418298      -1.98511899
H       -2.04503116      -0.13695203      -1.27131928
H       -1.44896770      -1.72256377      -0.73158939
H       -1.41217719      -0.85934147       1.70607709
H       -0.49517995       0.61321120       2.09046817
H       -1.99167103       0.73002914       1.15871384
H        3.23298923      -0.81168521       0.16871251
H        2.34438597       1.96778733      -0.71944708
15
Frame=6 idx=008708 GeodesicLength=0.4900475534309723 rxn_smarts="[C:1]([C:2]([C:3]([H:11])([H:12])[H:13])([C:4]#[C:5][H:14])[C:6]#[C:7][H:15])([H:8])([H:9])[H:10]>>[C:1]([C:2]1([C:3]([H:11])([H:12])[H:13])[C-:4]=[C:5]([H:14])[C:7]([H:15])=[C+:6]1)([H:8])([H:9])[H:10]"
C       -1.15044189      -0.72521416      -1.06391703
C       -0.34463580      -0.01931352       0.02027814
C       -1.10314196       0.12005881       1.33429523
C        1.00456062      -0.56082325       0.17979620
C        2.23922210      -0.43090527       0.07008986
C        0.22620793       1.31012240      -0.45471873
C        1.53365529       1.31972683      -0.49647157
H       -0.57610745      -0.81589734      -1.98519415
H       -2.04268607      -0.13351989      -1.27238946
H       -1.45108149      -1.72088886      -0.73180559
H       -1.41258062      -0.85906153       1.70516844
H       -0.49243999       0.61080590       2.09117697
H       -1.98860212       0.73207701       1.15833244
H        3.22577303      -0.83015811       0.17832004
H        2.33229842       2.00299098      -0.73296077
15
Frame=7 idx=008708 GeodesicLength=0.5716933599399564 rxn_smarts="[C:1]([C:2]([C:3]([H:11])([H:12])[H:13])([C:4]#[C:5][H:14])[C:6]#[C:7][H:15])([H:8])([H:9])[H:10]>>[C:1]([C:2]1([C:3]([H:11])([H:12])[H:13])[C-:4]=[C:5]([H:14])[C:7]([H:15])=[C+:6]1)([H:8])([H:9])[H:10]"
C       -1.14992981      -0.72468751      -1.06470827
C       -0.34152034      -0.02366185       0.02119856
C       -1.10138025       0.12015365       1.33439316
C        1.00198958      -0.58100581       0.18603224
C        2.23695895      -0.43697885       0.07355711
C        0.23516241       1.29866806      -0.45178384
C        1.53762812       1.33887783      -0.50354315
H       -0.57482382      -0.81803486      -1.98518433
H       -2.03996119      -0.12979508      -1.27358354
H       -1.45360369      -1.71911396      -0.73195570
H       -1.41326111      -0.85846765       1.70425110
H       -0.48933711       0.60830654       2.09181333
H       -1.98501708       0.73462197       1.15772401
H        3.21833762      -0.84858167       0.18757022
H        2.31875772       2.03969920      -0.74578091
15
Frame=8 idx=008708 GeodesicLength=0.6533371570926046 rxn_smarts="[C:1]([C:2]([C:3]([H:11])([H:12])[H:13])([C:4]#[C:5][H:14])[C:6]#[C:7][H:15])([H:8])([H:9])[H:10]>>[C:1]([C:2]1([C:3]([H:11])([H:12])[H:13])[C-:4]=[C:5]([H:14])[C:7]([H:15])=[C+:6]1)([H:8])([H:9])[H:10]"
C       -1.14910243      -0.72378621      -1.06558248
C       -0.33808112      -0.02828829       0.02242346
C       -1.09959855       0.11997925       1.33460956
C        0.99925205      -0.60216363       0.19279657
C        2.23439049      -0.44343506       0.07784359
C        0.24496557       1.28686524      -0.44807077
C        1.54164800       1.35859841      -0.50997152
H       -0.57303237      -0.81981319      -1.98512470
H       -2.03659304      -0.12527452      -1.27494120
H       -1.45633748      -1.71690570      -0.73254443
H       -1.41445487      -0.85808098       1.70312753
H       -0.48621046       0.60506573       2.09285281
H       -1.98108582       0.73731512       1.15715721
H        3.21074581      -0.86664759       0.19740725
H        2.30349423       2.07657142      -0.76198286
15
Frame=9 idx=008708 GeodesicLength=0.7351154143283025 rxn_smarts="[C:1]([C:2]([C:3]([H:11])([H:12])[H:13])([C:4]#[C:5][H:14])[C:6]#[C:7][H:15])([H:8])([H:9])[H:10]>>[C:1]([C:2]1([C:3]([H:11])([H:12])[H:13])[C-:4]=[C:5]([H:14])[C:7]([H:15])=[C+:6]1)([H:8])([H:9])[H:10]"
C       -1.14821187      -0.72309143      -1.06641137
C       -0.33428206      -0.03333801       0.02357957
C       -1.09746734       0.12009784       1.33465590
C        0.99632251      -0.62447035       0.19970277
C        2.23145738      -0.45063008       0.08221849
C        0.25565398       1.27427766      -0.44470326
C        1.54564858       1.37847371      -0.51722811
H       -0.57119071      -0.82231402      -1.98495938
H       -2.03281072      -0.12055455      -1.27643728
H       -1.45955972      -1.71464464      -0.73290620
H       -1.41584922      -0.85712314       1.70203998
H       -0.48253084       0.60194443       2.09364861
H       -1.97644678       0.74071889       1.15623015
H        3.20295268      -0.88476733       0.20664077
H        2.28631415       2.11542104      -0.77607065
15
Frame=10 idx=008708 GeodesicLength=0.8168906484104675 rxn_smarts="[C:1]([C:2]([C:3]([H:11])([H:12])[H:13])([C:4]#[C:5][H:14])[C:6]#[C:7][H:15])([H:8])([H:9])[H:10]>>[C:1]([C:2]1([C:3]([H:11])([H:12])[H:13])[C-:4]=[C:5]([H:14])[C:7]([H:15])=[C+:6]1)([H:8])([H:9])[H:10]"
C       -1.14701829      -0.72212817      -1.06729988
C       -0.33011096      -0.03871264       0.02496183
C       -1.09520615       0.12010058       1.33474621
C        0.99319408      -0.64784248       0.20707053
C        2.22816439      -0.45839874       0.08725934
C        0.26730615       1.26119370      -0.44079879
C        1.54961855       1.39885670      -0.52415572
H       -0.56889263      -0.82470388      -1.98472473
H       -2.02834926      -0.11511368      -1.27811258
H       -1.46305151      -1.71198664      -0.73356721
H       -1.41769057      -0.85614830       1.70078664
H       -0.47867117       0.59827411       2.09469992
H       -1.97130167       0.74445846       1.15522875
H        3.19504173      -0.90268937       0.21613919
H        2.26696730       2.15484032      -0.79223351
15
Frame=11 idx=008708 GeodesicLength=0.8986500163936925 rxn_smarts="[C:1]([C:2]([C:3]([H:11])([H:12])[H:13])([C:4]#[C:5][H:14])[C:6]#[C:7][H:15])([H:8])([H:9])[H:10]>>[C:1]([C:2]1([C:3]([H:11])([H:12])[H:13])[C-:4]=[C:5]([H:14])[C:7]([H:15])=[C+:6]1)([H:8])([H:9])[H:10]"
C       -1.14585313      -0.72149501      -1.06813083
C       -0.32555171      -0.04456018       0.02614064
C       -1.09243215       0.12055661       1.33457171
C        0.98984651      -0.67245122       0.21442158
C        2.22446985      -0.46711679       0.09204452
C        0.27994023       1.24717239      -0.43757861
C        1.55346265       1.41922245      -0.53239817
H       -0.56672212      -0.82808918      -1.98440180
H       -2.02352665      -0.10957082      -1.27991908
H       -1.46714823      -1.70933299      -0.73384157
H       -1.41959240      -0.85437387       1.69962116
H       -0.47400492       0.59493342       2.09530257
H       -1.96524792       0.74910000       1.15376524
H        3.18700847      -0.92068721       0.22522526
H        2.24535154       2.19669242      -0.80482263
15
Frame=12 idx=008708 GeodesicLength=0.9803892555145354 rxn_smarts="[C:1]([C:2]([C:3]([H:11])([H:12])[H:13])([C:4]#[C:5][H:14])[C:6]#[C:7][H:15])([H:8])([H:9])[H:10]>>[C:1]([C:2]1([C:3]([H:11])([H:12])[H:13])[C-:4]=[C:5]([H:14])[C:7]([H:15])=[C+:6]1)([H:8])([H:9])[H:10]"
C       -1.14375457      -0.71975310      -1.06916801
C       -0.32055231      -0.05051955       0.02818115
C       -1.09003379       0.12022573       1.33484448
C        0.98628350      -0.69788975       0.22302840
C        2.22041711      -0.47605406       0.09892520
C        0.29369414       1.23319488      -0.43210457
C        1.55723720       1.44097778      -0.53792542
H       -0.56305821      -0.82990400      -1.98396599
H       -2.01733103      -0.10241204      -1.28204333
H       -1.47093600      -1.70566673      -0.73533029
H       -1.42251375      -0.85349716       1.69792706
H       -0.47005215       0.58994072       2.09713020
H       -1.95914858       0.75344445       1.15265258
H        3.17888202      -0.93857075       0.23474479
H        2.22086641       2.23648356      -0.82689626
15
Frame=13 idx=008708 GeodesicLength=1.062092437506479 rxn_smarts="[C:1]([C:2]([C:3]([H:11])([H:12])[H:13])([C:4]#[C:5][H:14])[C:6]#[C:7][H:15])([H:8])([H:9])[H:10]>>[C:1]([C:2]1([C:3]([H:11])([H:12])[H:13])[C-:4]=[C:5]([H:14])[C:7]([H:15])=[C+:6]1)([H:8])([H:9])[H:10]"
C       -1.14179708      -0.71864563      -1.07009359
C       -0.31511677      -0.05702575       0.02979069
C       -1.08688052       0.12069575       1.33466747
C        0.98246512      -0.72464550       0.23140334
C        2.21592308      -0.48623722       0.10508513
C        0.30852003       1.21801364      -0.42796193
C        1.56072293       1.46248658      -0.54567393
H       -0.55976138      -0.83331769      -1.98342296
H       -2.01084238      -0.09544814      -1.28431224
H       -1.47546761      -1.70217233      -0.73607163
H       -1.42527645      -0.85133523       1.69643676
H       -0.46493109       0.58577725       2.09812189
H       -1.95184836       0.75905283       1.15082478
H        3.17065686      -0.95675029       0.24366639
H        2.19363361       2.27955173      -0.84246016
15
Frame=14 idx=008708 GeodesicLength=1.1437674134321099 rxn_smarts="[C:1]([C:2]([C:3]([H:11])([H:12])[H:13])([C:4]#[C:5][H:14])[C:6]#[C:7][H:15])([H:8])([H:9])[H:10]>>[C:1]([C:2]1([C:3]([H:11])([H:12])[H:13])[C-:4]=[C:5]([H:14])[C:7]([H:15])=[C+:6]1)([H:8])([H:9])[H:10]"
C       -1.13939932      -0.71709095      -1.07112925
C       -0.30919816      -0.06384161       0.03164651
C       -1.08346995       0.12104016       1.33454272
C        0.97838562      -0.75249234       0.24021682
C        2.21101888      -0.49727749       0.11187266
C        0.32453055       1.20229758      -0.42314272
C        1.56389607       1.48471838      -0.55295875
H       -0.55586838      -0.83643535      -1.98284317
H       -2.00343053      -0.08750925      -1.28678869
H       -1.48019699      -1.69806767      -0.73724912
H       -1.42842924      -0.84913657       1.69469414
H       -0.45950921       0.58093371       2.09942757
H       -1.94381351       0.76506576       1.14895951
H        3.16237489      -0.97489345       0.25330553
H        2.16310928       2.32268911      -0.86055377
15
Frame=15 idx=008708 GeodesicLength=1.225409197664681 rxn_smarts="[C:1]([C:2]([C:3]([H:11])([H:12])[H:13])([C:4]#[C:5][H:14])[C:6]#[C:7][H:15])([H:8])([H:9])[H:10]>>[C:1]([C:2]1([C:3]([H:11])([H:12])[H:13])[C-:4]=[C:5]([H:14])[C:7]([H:15])=[C+:6]1)([H:8])([H:9])[H:10]"
C       -1.13670261      -0.71557608      -1.07216883
C       -0.30277048      -0.07104723       0.03347596
C       -1.07957893       0.12175608       1.33422395
C        0.97402955      -0.78146382       0.24929504
C        2.20569735      -0.50939463       0.11883842
C        0.34175616       1.18573191      -0.41852058
C        1.56659813       1.50733413      -0.56095223
H       -0.55165247      -0.84015106      -1.98214646
H       -1.99521751      -0.07912491      -1.28951131
H       -1.48526727      -1.69367381      -0.73831082
H       -1.43174735      -0.84622996       1.69289098
H       -0.45344299       0.57618241       2.10052976
H       -1.93479617       0.77195091       1.14666187
H        3.15401275      -0.99345342       0.26268792
H        2.12908185       2.36715951      -0.87699368
15
Frame=16 idx=008708 GeodesicLength=1.3070365379519386 rxn_smarts="[C:1]([C:2]([C:3]([H:11])([H:12])[H:13])([C:4]#[C:5][H:14])[C:6]#[C:7][H:15])([H:8])([H:9])[H:10]>>[C:1]([C:2]1([C:3]([H:11])([H:12])[H:13])[C-:4]=[C:5]([H:14])[C:7]([H:15])=[C+:6]1)([H:8])([H:9])[H:10]"
C       -1.13379563      -0.71397410      -1.07327872
C       -0.29579393      -0.07865764       0.03519100
C       -1.07502570       0.12276478       1.33370855
C        0.96938644      -0.81162917       0.25837731
C        2.19996791      -0.52280201       0.12561273
C        0.36026619       1.16828738      -0.41413277
C        1.56867550       1.53034311      -0.56981986
H       -0.54729613      -0.84429856      -1.98145940
H       -1.98626099      -0.07009828      -1.29242230
H       -1.49078894      -1.68886284      -0.73936925
H       -1.43507041      -0.84269824       1.69097359
H       -0.44645596       0.57134043       2.10140701
H       -1.92458261       0.77969930       1.14405881
H        3.14560798      -1.01211311       0.27315516
H        2.09116626       2.41269893      -0.89200185
