11
Frame=0 idx=005114 GeodesicLength=0.0 rxn_smarts="[C:1]1([H:6])([H:7])[C:2]([H:8])([H:9])[O:3][C:4]([H:10])([H:11])[O:5]1>>[C:1](=[C:2]([O:3][C:4]([O:5][H:9])([H:10])[H:11])[H:8])([H:6])[H:7]"
C        0.85259761       1.00806335      -0.03129600
C        0.97118741      -0.38033266      -0.26588241
O       -0.06302608      -1.01236503      -0.80130713
C       -1.36994783      -0.46977386      -0.01630723
O       -1.00880337       0.26553488       0.98566953
H        0.07132244       1.62838877      -0.44118525
H        1.61925681       1.49257268       0.56334244
H        1.94386101      -0.86681489      -0.29852407
H        0.72115012      -0.25919499       0.90896044
H       -1.90571494       0.02438774      -0.84340065
H       -1.83188313      -1.43046604       0.23993028
11
Frame=1 idx=005114 GeodesicLength=0.10179310383302 rxn_smarts="[C:1]1([H:6])([H:7])[C:2]([H:8])([H:9])[O:3][C:4]([H:10])([H:11])[O:5]1>>[C:1](=[C:2]([O:3][C:4]([O:5][H:9])([H:10])[H:11])[H:8])([H:6])[H:7]"
C        0.84638336       1.00745390      -0.02724241
C        0.97241277      -0.38150593      -0.25946838
O       -0.06627332      -1.01172997      -0.79861890
C       -1.36230899      -0.47259355      -0.02260929
O       -0.99991819       0.26895889       0.98324586
H        0.07778651       1.63326246      -0.45287651
H        1.61576885       1.49629078       0.56050252
H        1.94702390      -0.86005944      -0.31969175
H        0.70003638      -0.27762463       0.93552855
H       -1.90273070       0.02603690      -0.84285165
H       -1.82818057      -1.42848942       0.24408196
11
Frame=2 idx=005114 GeodesicLength=0.20348574053030632 rxn_smarts="[C:1]1([H:6])([H:7])[C:2]([H:8])([H:9])[O:3][C:4]([H:10])([H:11])[O:5]1>>[C:1](=[C:2]([O:3][C:4]([O:5][H:9])([H:10])[H:11])[H:8])([H:6])[H:7]"
C        0.84026151       1.00685195      -0.02333190
C        0.97385774      -0.38275199      -0.25265517
O       -0.06923628      -1.01129570      -0.79557518
C       -1.35468509      -0.47537648      -0.02884216
O       -0.99116961       0.27257821       0.98088160
H        0.08460653       1.63785536      -0.46462142
H        1.61220682       1.50007749       0.55758590
H        1.94990892      -0.85253275      -0.34188096
H        0.67817555      -0.29668862       0.96259357
H       -1.89942129       0.02761357      -0.84243048
H       -1.82450481      -1.42633103       0.24827619
11
Frame=3 idx=005114 GeodesicLength=0.30513382017181345 rxn_smarts="[C:1]1([H:6])([H:7])[C:2]([H:8])([H:9])[O:3][C:4]([H:10])([H:11])[O:5]1>>[C:1](=[C:2]([O:3][C:4]([O:5][H:9])([H:10])[H:11])[H:8])([H:6])[H:7]"
C        0.83425031       1.00626979      -0.01960743
C        0.97555681      -0.38406435      -0.24544872
O       -0.07189332      -1.01105065      -0.79217982
C       -1.34704215      -0.47812807      -0.03499380
O       -0.98249109       0.27636846       0.97858402
H        0.09178328       1.64216272      -0.47643492
H        1.60856906       1.50394271       0.55457990
H        1.95240202      -0.84419796      -0.36504958
H        0.65546768      -0.31643927       0.99015771
H       -1.89576573       0.02912557      -0.84211342
H       -1.82083686      -1.42398895       0.25250606
11
Frame=4 idx=005114 GeodesicLength=0.40679754481476377 rxn_smarts="[C:1]1([H:6])([H:7])[C:2]([H:8])([H:9])[O:3][C:4]([H:10])([H:11])[O:5]1>>[C:1](=[C:2]([O:3][C:4]([O:5][H:9])([H:10])[H:11])[H:8])([H:6])[H:7]"
C        0.82836603       1.00572438      -0.01611471
C        0.97754108      -0.38542515      -0.23787948
O       -0.07422643      -1.01098258      -0.78844281
C       -1.33934835      -0.48085274      -0.04105286
O       -0.97381309       0.28029703       0.97636749
H        0.09930127       1.64619248      -0.48832427
H        1.60485983       1.50790177       0.55146023
H        1.95440998      -0.83504622      -0.38911439
H        0.63181604      -0.33693107       1.01820993
H       -1.89174776       0.03058644      -0.84187135
H       -1.81715861      -1.42146434       0.25676222
11
Frame=5 idx=005114 GeodesicLength=0.5084532294797286 rxn_smarts="[C:1]1([H:6])([H:7])[C:2]([H:8])([H:9])[O:3][C:4]([H:10])([H:11])[O:5]1>>[C:1](=[C:2]([O:3][C:4]([O:5][H:9])([H:10])[H:11])[H:8])([H:6])[H:7]"
C        0.82262535       1.00524401      -0.01291876
C        0.97984648      -0.38680923      -0.22997383
O       -0.07621526      -1.01106105      -0.78439336
C       -1.33156592      -0.48355442      -0.04700310
O       -0.96504478       0.28431399       0.97426216
H        0.10713165       1.64995553      -0.50029984
H        1.60108210       1.51198664       0.54818190
H        1.95579146      -0.82508370      -0.41390935
H        0.60714666      -0.35825134       1.04669578
H       -1.88735695       0.03202249      -0.84166282
H       -1.81344078      -1.41876292       0.26102120
11
Frame=6 idx=005114 GeodesicLength=0.6101559513764704 rxn_smarts="[C:1]1([H:6])([H:7])[C:2]([H:8])([H:9])[O:3][C:4]([H:10])([H:11])[O:5]1>>[C:1](=[C:2]([O:3][C:4]([O:5][H:9])([H:10])[H:11])[H:8])([H:6])[H:7]"
C        0.81704229       1.00485832      -0.01007993
C        0.98250009      -0.38817957      -0.22179020
O       -0.07784517      -1.01126463      -0.78005579
C       -1.32366263      -0.48623561      -0.05283122
O       -0.95609668       0.28836502       0.97230709
H        0.11522874       1.65347695      -0.51236274
H        1.59724889       1.51623189       0.54468746
H        1.95647618      -0.81434905      -0.43926020
H        0.58135943      -0.38047532       1.07556811
H       -1.88258598       0.03346558      -0.84144052
H       -1.80966515      -1.41589359       0.26525793
11
Frame=7 idx=005114 GeodesicLength=0.7119275908051735 rxn_smarts="[C:1]1([H:6])([H:7])[C:2]([H:8])([H:9])[O:3][C:4]([H:10])([H:11])[O:5]1>>[C:1](=[C:2]([O:3][C:4]([O:5][H:9])([H:10])[H:11])[H:8])([H:6])[H:7]"
C        0.81162473       1.00460433      -0.00766234
C        0.98552067      -0.38948467      -0.21341952
O       -0.07911129      -1.01156450      -0.77547181
C       -1.31560998      -0.48889523      -0.05852334
O       -0.94687284       0.29238518       0.97054522
H        0.12352850       1.65679619      -0.52450717
H        1.59337400       1.52067450       0.54090907
H        1.95642165      -0.80292224      -0.46492505
H        0.55437518      -0.40367772       1.10475343
H       -1.87744027       0.03495383      -0.84114538
H       -1.80581037      -1.41286966       0.26944688
11
Frame=8 idx=005114 GeodesicLength=0.813781514160564 rxn_smarts="[C:1]1([H:6])([H:7])[C:2]([H:8])([H:9])[O:3][C:4]([H:10])([H:11])[O:5]1>>[C:1](=[C:2]([O:3][C:4]([O:5][H:9])([H:10])[H:11])[H:8])([H:6])[H:7]"
C        0.80638205       1.00452760      -0.00574479
C        0.98892606      -0.39066831      -0.20494266
O       -0.08000759      -1.01192450      -0.77068654
C       -1.30737803      -0.49152905      -0.06406267
O       -0.93725686       0.29629439       0.96903939
H        0.13194625       1.65995788      -0.53673626
H        1.58947194       1.52537050       0.53675409
H        1.95560329      -0.79089807      -0.49062279
H        0.52610026      -0.42796858       1.13415772
H       -1.87192721       0.03654211      -0.84070590
H       -1.80186016      -1.40970397       0.27355040
11
Frame=9 idx=005114 GeodesicLength=0.9156728590090876 rxn_smarts="[C:1]1([H:6])([H:7])[C:2]([H:8])([H:9])[O:3][C:4]([H:10])([H:11])[O:5]1>>[C:1](=[C:2]([O:3][C:4]([O:5][H:9])([H:10])[H:11])[H:8])([H:6])[H:7]"
C        0.80130075       1.00466933      -0.00440259
C        0.99270747      -0.39167131      -0.19641695
O       -0.08053596      -1.01231559      -0.76572635
C       -1.29895751      -0.49411906      -0.06943901
O       -0.92710408       0.29995664       0.96788489
H        0.14034772       1.66300474      -0.54901865
H        1.58557049       1.53040314       0.53204909
H        1.95411878      -0.77841556      -0.51605120
H        0.49645645      -0.45343101       1.16368674
H       -1.86605087       0.03832605      -0.84004992
H       -1.79785325      -1.40640737       0.27748396
11
Frame=10 idx=005114 GeodesicLength=1.0176356060054412 rxn_smarts="[C:1]1([H:6])([H:7])[C:2]([H:8])([H:9])[O:3][C:4]([H:10])([H:11])[O:5]1>>[C:1](=[C:2]([O:3][C:4]([O:5][H:9])([H:10])[H:11])[H:8])([H:6])[H:7]"
C        0.79639455       1.00507089      -0.00370597
C        0.99688968      -0.39243492      -0.18796188
O       -0.08069560      -1.01271160      -0.76064953
C       -1.29030883      -0.49666853      -0.07463081
O       -0.91632136       0.30333336       0.96710532
H        0.14868196       1.66598813      -0.56137821
H        1.58166027       1.53579072       0.52677907
H        1.95192646      -0.76556496      -0.54096887
H        0.46533740      -0.48014489       1.19324642
H       -1.85982498       0.04032422      -0.83909635
H       -1.79373955      -1.40298243       0.28126082
11
Frame=11 idx=005114 GeodesicLength=1.1196160669548103 rxn_smarts="[C:1]1([H:6])([H:7])[C:2]([H:8])([H:9])[O:3][C:4]([H:10])([H:11])[O:5]1>>[C:1](=[C:2]([O:3][C:4]([O:5][H:9])([H:10])[H:11])[H:8])([H:6])[H:7]"
C        0.79165756       1.00576731      -0.00370961
C        1.00147244      -0.39290336      -0.17965122
O       -0.08049072      -1.01309263      -0.75548028
C       -1.28141701      -0.49916706      -0.07962337
O       -0.90481032       0.30635008       0.96675944
H        0.15685125       1.66895356      -0.57381334
H        1.57775047       1.54158280       0.52085039
H        1.94911563      -0.75246829      -0.56515975
H        0.43265732      -0.50818199       1.22275737
H       -1.85325941       0.04258940      -0.83777708
H       -1.78952721      -1.39942983       0.28484745
11
Frame=12 idx=005114 GeodesicLength=1.2216219939229394 rxn_smarts="[C:1]1([H:6])([H:7])[C:2]([H:8])([H:9])[O:3][C:4]([H:10])([H:11])[O:5]1>>[C:1](=[C:2]([O:3][C:4]([O:5][H:9])([H:10])[H:11])[H:8])([H:6])[H:7]"
C        0.78708665       1.00678964      -0.00446177
C        1.00646358      -0.39302191      -0.17155468
O       -0.07991718      -1.01345662      -0.75021754
C       -1.27226299      -0.50160278      -0.08439928
O       -0.89246845       0.30892894       0.96690891
H        0.16475954       1.67194237      -0.58632598
H        1.57385313       1.54782805       0.51417277
H        1.94579424      -0.73923104      -0.58847415
H        0.39827531      -0.53760403       1.25216641
H       -1.84634999       0.04517119      -0.83602701
H       -1.78523385      -1.39574382       0.28821233
11
Frame=13 idx=005114 GeodesicLength=1.3235811237967094 rxn_smarts="[C:1]1([H:6])([H:7])[C:2]([H:8])([H:9])[O:3][C:4]([H:10])([H:11])[O:5]1>>[C:1](=[C:2]([O:3][C:4]([O:5][H:9])([H:10])[H:11])[H:8])([H:6])[H:7]"
C        0.78267671       1.00815977      -0.00599653
C        1.01187228      -0.39274740      -0.16371396
O       -0.07896885      -1.01380813      -0.74484720
C       -1.26283063      -0.50396400      -0.08894157
O       -0.87920467       0.31100080       0.96761202
H        0.17232046       1.67498623      -0.59892421
H        1.56997452       1.55456946       0.50666927
H        1.94207460      -0.72594095      -0.61081823
H        0.36205751      -0.56845344       1.28142154
H       -1.83908695       0.04811270      -0.83379002
H       -1.78088499      -1.39191505       0.29132889
11
Frame=14 idx=005114 GeodesicLength=1.4255148153663568 rxn_smarts="[C:1]1([H:6])([H:7])[C:2]([H:8])([H:9])[O:3][C:4]([H:10])([H:11])[O:5]1>>[C:1](=[C:2]([O:3][C:4]([O:5][H:9])([H:10])[H:11])[H:8])([H:6])[H:7]"
C        0.77842667       1.00989030      -0.00833987
C        1.01772032      -0.39204208      -0.15617428
O       -0.07762736      -1.01417162      -0.73932975
C       -1.25309665      -0.50624401      -0.09323152
O       -0.86490693       0.31247179       0.96893839
H        0.17944507       1.67810734      -0.61160372
H        1.56612813       1.56184376       0.49825653
H        1.93808197      -0.71266490      -0.63217373
H        0.32379118      -0.60071620       1.31050869
H       -1.83144142       0.05145906      -0.83100828
H       -1.77652097      -1.38793344       0.29415755
11
Frame=15 idx=005114 GeodesicLength=1.5273817370822615 rxn_smarts="[C:1]1([H:6])([H:7])[C:2]([H:8])([H:9])[O:3][C:4]([H:10])([H:11])[O:5]1>>[C:1](=[C:2]([O:3][C:4]([O:5][H:9])([H:10])[H:11])[H:8])([H:6])[H:7]"
C        0.77433421       1.01198222      -0.01149985
C        1.02403707      -0.39087756      -0.14897156
O       -0.07587021      -1.01458494      -0.73361031
C       -1.24303581      -0.50843943      -0.09724960
O       -0.84947535       0.31325534       0.97094892
H        0.18605900       1.68131734      -0.62435965
H        1.56232196       1.56967399       0.48887405
H        1.93392797      -0.69944202      -0.65258362
H        0.28326143      -0.63434395       1.33941825
H       -1.82337570       0.05524211      -0.82763356
H       -1.77218457      -1.38378309       0.29666692
11
Frame=16 idx=005114 GeodesicLength=1.6291621410616572 rxn_smarts="[C:1]1([H:6])([H:7])[C:2]([H:8])([H:9])[O:3][C:4]([H:10])([H:11])[O:5]1>>[C:1](=[C:2]([O:3][C:4]([O:5][H:9])([H:10])[H:11])[H:8])([H:6])[H:7]"
C        0.77040113       1.01442546      -0.01547055
C        1.03086848      -0.38923233      -0.14214156
O       -0.07366483      -1.01510353      -0.72761355
C       -1.23261527      -0.51055318      -0.10097282
O       -0.83279885       0.31325140       0.97370820
H        0.19209357       1.68461989      -0.63717838
H        1.55856780       1.57807484       0.47847174
H        1.92971350      -0.68628303      -0.67215971
H        0.24019531      -0.66923542       1.36815113
H       -1.81483636       0.05948504      -0.82361905
H       -1.76792446      -1.37944912       0.29882455
