12
Frame=0 idx=002496 GeodesicLength=0.0 rxn_smarts="[O:1]([C:2]1([C:5]#[C:6][H:12])[C:3]([H:8])([H:9])[C:4]1([H:10])[H:11])[H:7]>>[O:1]([C:6](=[C:5]=[C:2]1[C:3]([H:8])([H:9])[C:4]1([H:10])[H:11])[H:12])[H:7]"
O        0.59619161       1.12220732      -0.80483436
C        0.16172645      -0.26391340       0.14239499
C       -0.94144373      -1.05174482      -0.43081116
C       -1.16154910      -0.18504970       0.79513151
C        1.52800822      -0.48114534       0.51275378
C        1.92837334       0.57062636      -0.15969064
H        0.33565780       1.92766111      -0.33814199
H       -1.38170015      -0.70724298      -1.35590655
H       -0.86219452      -2.12480164      -0.32010903
H       -1.76367727       0.70364760       0.66060918
H       -1.23148155      -0.64465715       1.77197301
H        2.79208894       1.13441262      -0.47336876
12
Frame=1 idx=002496 GeodesicLength=0.08833301702722186 rxn_smarts="[O:1]([C:2]1([C:5]#[C:6][H:12])[C:3]([H:8])([H:9])[C:4]1([H:10])[H:11])[H:7]>>[O:1]([C:6](=[C:5]=[C:2]1[C:3]([H:8])([H:9])[C:4]1([H:10])[H:11])[H:12])[H:7]"
O        0.59837257       1.13758933      -0.82096420
C        0.15101472      -0.25980857       0.13315751
C       -0.95116883      -1.05864424      -0.42732682
C       -1.16629644      -0.19273311       0.79969407
C        1.51571511      -0.47238689       0.49636578
C        1.94515835       0.56827067      -0.16838618
H        0.35458087       1.95046427      -0.35915577
H       -1.40141810      -0.71883490      -1.34945736
H       -0.86467072      -2.13104387      -0.31517347
H       -1.77499773       0.69235870       0.67075335
H       -1.22570020      -0.65403329       1.77650479
H        2.81941039       1.13880189      -0.43601169
12
Frame=2 idx=002496 GeodesicLength=0.17662072693959885 rxn_smarts="[O:1]([C:2]1([C:5]#[C:6][H:12])[C:3]([H:8])([H:9])[C:4]1([H:10])[H:11])[H:7]>>[O:1]([C:6](=[C:5]=[C:2]1[C:3]([H:8])([H:9])[C:4]1([H:10])[H:11])[H:12])[H:7]"
O        0.60044913       1.15350248      -0.83756807
C        0.13988107      -0.25526029       0.12365368
C       -0.96089544      -1.06558683      -0.42377466
C       -1.17102316      -0.20059184       0.80439418
C        1.50315481      -0.46281406       0.47935168
C        1.96219821       0.56576545      -0.17744728
H        0.37449418       1.97387987      -0.38104227
H       -1.42150413      -0.73067695      -1.34269176
H       -0.86661866      -2.13725291      -0.31032100
H       -1.78660852       0.68062753       0.68132635
H       -1.21935459      -0.66358396       1.78108576
H        2.84582711       1.14199151      -0.39696661
12
Frame=3 idx=002496 GeodesicLength=0.26486777503147696 rxn_smarts="[O:1]([C:2]1([C:5]#[C:6][H:12])[C:3]([H:8])([H:9])[C:4]1([H:10])[H:11])[H:7]>>[O:1]([C:6](=[C:5]=[C:2]1[C:3]([H:8])([H:9])[C:4]1([H:10])[H:11])[H:12])[H:7]"
O        0.60244106       1.17009710      -0.85445335
C        0.12829892      -0.25017406       0.11399520
C       -0.97050154      -1.07253908      -0.42019333
C       -1.17579082      -0.20867729       0.80922063
C        1.49028299      -0.45226325       0.46189991
C        1.97942885       0.56350934      -0.18618429
H        0.39527877       1.99802531      -0.40375868
H       -1.44178179      -0.74274242      -1.33565970
H       -0.86784939      -2.14338044      -0.30564462
H       -1.79861985       0.66834748       0.69231784
H       -1.21254449      -0.67339643       1.78566791
H        2.87135730       1.14319374      -0.35720752
12
Frame=4 idx=002496 GeodesicLength=0.35307393506836826 rxn_smarts="[O:1]([C:2]1([C:5]#[C:6][H:12])[C:3]([H:8])([H:9])[C:4]1([H:10])[H:11])[H:7]>>[O:1]([C:6](=[C:5]=[C:2]1[C:3]([H:8])([H:9])[C:4]1([H:10])[H:11])[H:12])[H:7]"
O        0.60435893       1.18747482      -0.87148654
C        0.11622947      -0.24448719       0.10426571
C       -0.97991468      -1.07948762      -0.41660519
C       -1.18065113      -0.21702806       0.81416510
C        1.47704464      -0.44063181       0.44415100
C        1.99678897       0.56176751      -0.19407099
H        0.41687843       2.02297919      -0.42729477
H       -1.46214184      -0.75503464      -1.32839452
H       -0.86824498      -2.14939683      -0.30120137
H       -1.81111737       0.65543191       0.70371496
H       -1.20534339      -0.68352718       1.79021527
H        2.89611294       1.14193990      -0.31745864
12
Frame=5 idx=002496 GeodesicLength=0.4412439124859038 rxn_smarts="[O:1]([C:2]1([C:5]#[C:6][H:12])[C:3]([H:8])([H:9])[C:4]1([H:10])[H:11])[H:7]>>[O:1]([C:6](=[C:5]=[C:2]1[C:3]([H:8])([H:9])[C:4]1([H:10])[H:11])[H:12])[H:7]"
O        0.60620088       1.20569643      -0.88859262
C        0.10362497      -0.23817055       0.09451497
C       -0.98910641      -1.08643389      -0.41301972
C       -1.18565304      -0.22566990       0.81922494
C        1.46337919      -0.42784005       0.42621054
C        2.01422487       0.56059928      -0.20083531
H        0.43930977       2.04877174      -0.45163806
H       -1.48252353      -0.76757526      -1.32091534
H       -0.86774259      -2.15529085      -0.29701483
H       -1.82417379       0.64181762       0.71551212
H       -1.19781472      -0.69399942       1.79471319
H        2.92027439       1.13809485      -0.27815989
12
Frame=6 idx=002496 GeodesicLength=0.529384713483497 rxn_smarts="[O:1]([C:2]1([C:5]#[C:6][H:12])[C:3]([H:8])([H:9])[C:4]1([H:10])[H:11])[H:7]>>[O:1]([C:6](=[C:5]=[C:2]1[C:3]([H:8])([H:9])[C:4]1([H:10])[H:11])[H:12])[H:7]"
O        0.60795544       1.22474823      -0.90584386
C        0.09044390      -0.23123063       0.08471080
C       -0.99810553      -1.09338243      -0.40942914
C       -1.19075829      -0.23460628       0.82441621
C        1.44925586      -0.41389819       0.40798093
C        2.03171064       0.55995634      -0.20644844
H        0.46267209       2.07537598      -0.47695112
H       -1.50299233      -0.78039772      -1.31318702
H       -0.86637157      -2.16104073      -0.29309018
H       -1.83774631       0.62747685       0.72775920
H       -1.18986871      -0.70479099       1.79916885
H        2.94380480       1.13178957      -0.23908620
12
Frame=7 idx=002496 GeodesicLength=0.6175020409709894 rxn_smarts="[O:1]([C:2]1([C:5]#[C:6][H:12])[C:3]([H:8])([H:9])[C:4]1([H:10])[H:11])[H:7]>>[O:1]([C:6](=[C:5]=[C:2]1[C:3]([H:8])([H:9])[C:4]1([H:10])[H:11])[H:12])[H:7]"
O        0.60957093       1.24470353      -0.92319457
C        0.07662591      -0.22363622       0.07488968
C       -1.00689471      -1.10034647      -0.40583036
C       -1.19600616      -0.24385416       0.82974109
C        1.43461063      -0.39868686       0.38954261
C        2.04918186       0.55976797      -0.21088698
H        0.48704587       2.10281403      -0.50322315
H       -1.52350694      -0.79355468      -1.30520926
H       -0.86406745      -2.16663755      -0.28943976
H       -1.85190325       0.61235073       0.74045788
H       -1.18154251      -0.71590045       1.80356720
H        2.96688583       1.12298013      -0.20041437
12
Frame=8 idx=002496 GeodesicLength=0.7056131952323105 rxn_smarts="[O:1]([C:2]1([C:5]#[C:6][H:12])[C:3]([H:8])([H:9])[C:4]1([H:10])[H:11])[H:7]>>[O:1]([C:6](=[C:5]=[C:2]1[C:3]([H:8])([H:9])[C:4]1([H:10])[H:11])[H:12])[H:7]"
O        0.61103705       1.26551785      -0.94077613
C        0.06213352      -0.21542189       0.06497264
C       -1.01552735      -1.10731819      -0.40221596
C       -1.20131339      -0.25341363       0.83522745
C        1.41942640      -0.38226307       0.37068920
C        2.06662891       0.55991941      -0.21420840
H        0.51260503       2.13103182      -0.53069872
H       -1.54418001      -0.80706422      -1.29693365
H       -0.86089182      -2.17203317      -0.28605991
H       -1.86653132       0.59640875       0.75369238
H       -1.17266787      -0.72728366       1.80794001
H        2.98928085       1.11191999      -0.16162891
12
Frame=9 idx=002496 GeodesicLength=0.7935924227244531 rxn_smarts="[O:1]([C:2]1([C:5]#[C:6][H:12])[C:3]([H:8])([H:9])[C:4]1([H:10])[H:11])[H:7]>>[O:1]([C:6](=[C:5]=[C:2]1[C:3]([H:8])([H:9])[C:4]1([H:10])[H:11])[H:12])[H:7]"
O        0.61223080       1.28750586      -0.95815407
C        0.04681731      -0.20642359       0.05525101
C       -1.02385721      -1.11433172      -0.39856834
C       -1.20694074      -0.26333815       0.84085281
C        1.40347697      -0.36419230       0.35208628
C        2.08390704       0.56009181      -0.21660423
H        0.53988189       2.15998747      -0.55899649
H       -1.56468874      -0.82102672      -1.28843679
H       -0.85652029      -2.17723859      -0.28299334
H       -1.88202699       0.57947791       0.76734011
H       -1.16366987      -0.73902244       1.81219253
H        3.01138983       1.09851046      -0.12396946
12
Frame=10 idx=002496 GeodesicLength=0.881573595133281 rxn_smarts="[O:1]([C:2]1([C:5]#[C:6][H:12])[C:3]([H:8])([H:9])[C:4]1([H:10])[H:11])[H:7]>>[O:1]([C:6](=[C:5]=[C:2]1[C:3]([H:8])([H:9])[C:4]1([H:10])[H:11])[H:12])[H:7]"
O        0.61315228       1.31047513      -0.97578148
C        0.03070903      -0.19675944       0.04543151
C       -1.03201751      -1.12133481      -0.39490248
C       -1.21257952      -0.27359526       0.84667481
C        1.38686786      -0.34474680       0.33300760
C        2.10104442       0.56042791      -0.21792103
H        0.56862423       2.18962481      -0.58879097
H       -1.58536838      -0.83540207      -1.27958249
H       -0.85119105      -2.18215464      -0.28026209
H       -1.89797174       0.56160783       0.78164199
H       -1.15398597      -0.75100810       1.81640805
H        3.03271634       1.08286543      -0.08592342
12
Frame=11 idx=002496 GeodesicLength=0.9695235637854377 rxn_smarts="[O:1]([C:2]1([C:5]#[C:6][H:12])[C:3]([H:8])([H:9])[C:4]1([H:10])[H:11])[H:7]>>[O:1]([C:6](=[C:5]=[C:2]1[C:3]([H:8])([H:9])[C:4]1([H:10])[H:11])[H:12])[H:7]"
O        0.61373834       1.33455705      -0.99361657
C        0.01375904      -0.18636292       0.03555000
C       -1.03996533      -1.12833112      -0.39120683
C       -1.21822769      -0.28418703       0.85269641
C        1.36953865      -0.32374209       0.31350197
C        2.11795293       0.56079955      -0.21825352
H        0.59898045       2.21991326      -0.62013931
H       -1.60617543      -0.85023320      -1.27034766
H       -0.84479354      -2.18677380      -0.27788617
H       -1.91441186       0.54274464       0.79661699
H       -1.14358180      -0.76323869       1.82055744
H        3.05318624       1.06485436      -0.04747276
12
Frame=12 idx=002496 GeodesicLength=1.0574287252716998 rxn_smarts="[O:1]([C:2]1([C:5]#[C:6][H:12])[C:3]([H:8])([H:9])[C:4]1([H:10])[H:11])[H:7]>>[O:1]([C:6](=[C:5]=[C:2]1[C:3]([H:8])([H:9])[C:4]1([H:10])[H:11])[H:12])[H:7]"
O        0.61394897       1.35981335      -1.01172050
C       -0.00407335      -0.17521753       0.02556787
C       -1.04769507      -1.13529181      -0.38748406
C       -1.22379232      -0.29512249       0.85895071
C        1.35145061      -0.30111756       0.29342452
C        2.13454589       0.56113096      -0.21758329
H        0.63114207       2.25075129      -0.65333236
H       -1.62715056      -0.86551584      -1.26067206
H       -0.83729351      -2.19102727      -0.27592517
H       -1.93124506       0.52283213       0.81238354
H       -1.13227140      -0.77569843       1.82463529
H        3.07243373       1.04446321      -0.00824449
12
Frame=13 idx=002496 GeodesicLength=1.1452693613379386 rxn_smarts="[O:1]([C:2]1([C:5]#[C:6][H:12])[C:3]([H:8])([H:9])[C:4]1([H:10])[H:11])[H:7]>>[O:1]([C:6](=[C:5]=[C:2]1[C:3]([H:8])([H:9])[C:4]1([H:10])[H:11])[H:12])[H:7]"
O        0.61368357       1.38643117      -1.02999241
C       -0.02286489      -0.16324448       0.01554678
C       -1.05512290      -1.14221705      -0.38372881
C       -1.22929745      -0.30640520       0.86542291
C        1.33250050      -0.27663076       0.27290539
C        2.15069944       0.56130321      -0.21592426
H        0.66518920       2.28210134      -0.68831456
H       -1.64816828      -0.88133698      -1.25057450
H       -0.82851566      -2.19485281      -0.27437701
H       -1.94854239       0.50176741       0.82889959
H       -1.12007239      -0.78833202       1.82861495
H        3.09051126       1.02141615       0.03152194
12
Frame=14 idx=002496 GeodesicLength=1.233028247565662 rxn_smarts="[O:1]([C:2]1([C:5]#[C:6][H:12])[C:3]([H:8])([H:9])[C:4]1([H:10])[H:11])[H:7]>>[O:1]([C:6](=[C:5]=[C:2]1[C:3]([H:8])([H:9])[C:4]1([H:10])[H:11])[H:12])[H:7]"
O        0.61288360       1.41448925      -1.04849051
C       -0.04265471      -0.15044457       0.00544239
C       -1.06226373      -1.14905291      -0.37995444
C       -1.23459586      -0.31805771       0.87216886
C        1.31265672      -0.25026292       0.25171140
C        2.16627543       0.56127219      -0.21317083
H        0.70137749       2.31374912      -0.72560444
H       -1.66931493      -0.89763728      -1.23997170
H       -0.81846059      -2.19814811      -0.27336573
H       -1.96612173       0.47948435       0.84636856
H       -1.10671028      -0.80115959       1.83248965
H        3.10692858       0.99576818       0.07237679
12
Frame=15 idx=002496 GeodesicLength=1.3206752021014971 rxn_smarts="[O:1]([C:2]1([C:5]#[C:6][H:12])[C:3]([H:8])([H:9])[C:4]1([H:10])[H:11])[H:7]>>[O:1]([C:6](=[C:5]=[C:2]1[C:3]([H:8])([H:9])[C:4]1([H:10])[H:11])[H:12])[H:7]"
O        0.61144988       1.44416562      -1.06715664
C       -0.06349927      -0.13677560      -0.00472378
C       -1.06906657      -1.15575723      -0.37617144
C       -1.23960902      -0.33009166       0.87920542
C        1.29184142      -0.22186540       0.22980319
C        2.18111329       0.56092401      -0.20927340
H        0.73987640       2.34547980      -0.76546151
H       -1.69055350      -0.91441613      -1.22883780
H       -0.80702806      -2.20080519      -0.27296293
H       -1.98389811       0.45588964       0.86487101
H       -1.09203723      -0.81415693       1.83623565
H        3.12141077       0.96740906       0.11447224
12
Frame=16 idx=002496 GeodesicLength=1.4082248921060847 rxn_smarts="[O:1]([C:2]1([C:5]#[C:6][H:12])[C:3]([H:8])([H:9])[C:4]1([H:10])[H:11])[H:7]>>[O:1]([C:6](=[C:5]=[C:2]1[C:3]([H:8])([H:9])[C:4]1([H:10])[H:11])[H:12])[H:7]"
O        0.60927797       1.47558147      -1.08602996
C       -0.08543674      -0.12225587      -0.01500543
C       -1.07556582      -1.16225650      -0.37240485
C       -1.24412747      -0.34254690       0.88659682
C        1.27001224      -0.19146275       0.20685116
C        2.19503600       0.56022852      -0.20403573
H        0.78101752       2.37694407      -0.80857930
H       -1.71202961      -0.93155007      -1.21705220
H       -0.79426709      -2.20271247      -0.27335811
H       -2.00159106       0.43092587       0.88467940
H       -1.07567078      -0.82739596       1.83981239
H        3.13334485       0.93650061       0.15852582
