12
Frame=0 idx=004929 GeodesicLength=0.0 rxn_smarts="[O:1]=[C:2]1[C:3]([H:7])([H:8])[C:4]([H:9])([H:10])[O:5][C:6]1([H:11])[H:12]>>[O:1]([C:2]1=[C:6]([H:11])[O:5][C:4]([H:9])([H:10])[C:3]1([H:7])[H:8])[H:12]"
O        1.01258279       1.74585301       0.91104030
C        0.46668911       0.84744617       0.17869918
C       -0.95918519       0.52489232      -0.12203467
C       -0.83041585      -1.01575377      -0.11308832
O        0.50758119      -1.33318717      -0.50577239
C        1.29077165      -0.22938601      -0.15865487
H       -1.21523005       0.90226886      -1.11578394
H       -1.66951818       0.90633904       0.60784450
H       -1.01097498      -1.39603964       0.89922419
H       -1.51198183      -1.50964516      -0.80372006
H        2.17972918      -0.08673650      -0.76336388
H        1.73995212       0.64394881       0.98560995
12
Frame=1 idx=004929 GeodesicLength=0.037719582189825726 rxn_smarts="[O:1]=[C:2]1[C:3]([H:7])([H:8])[C:4]([H:9])([H:10])[O:5][C:6]1([H:11])[H:12]>>[O:1]([C:2]1=[C:6]([H:11])[O:5][C:4]([H:9])([H:10])[C:3]1([H:7])[H:8])[H:12]"
O        1.00811960       1.74579999       0.91154021
C        0.46660488       0.85382988       0.16792185
C       -0.96018908       0.52406799      -0.12271983
C       -0.83087996      -1.01538315      -0.11401988
O        0.50792933      -1.33172706      -0.50430514
C        1.29144205      -0.22881895      -0.15696787
H       -1.22256216       0.90275634      -1.11432470
H       -1.66665447       0.90587956       0.61089108
H       -1.01172264      -1.39640762       0.89799330
H       -1.51078450      -1.51015926      -0.80563946
H        2.18116038      -0.09242042      -0.76218981
H        1.74753657       0.64258268       0.99182026
12
Frame=2 idx=004929 GeodesicLength=0.07544153305119414 rxn_smarts="[O:1]=[C:2]1[C:3]([H:7])([H:8])[C:4]([H:9])([H:10])[O:5][C:6]1([H:11])[H:12]>>[O:1]([C:2]1=[C:6]([H:11])[O:5][C:4]([H:9])([H:10])[C:3]1([H:7])[H:8])[H:12]"
O        1.00356424       1.74557795       0.91204448
C        0.46647608       0.86018336       0.15714281
C       -0.96116618       0.52325174      -0.12341497
C       -0.83135532      -1.01501240      -0.11494703
O        0.50830548      -1.33027967      -0.50266905
C        1.29207254      -0.22816774      -0.15524674
H       -1.22986881       0.90323430      -1.11283556
H       -1.66377706       0.90542986       0.61387579
H       -1.01257872      -1.39676788       0.89675142
H       -1.50952750      -1.51066418      -0.80762315
H        2.18244864      -0.09803692      -0.76107698
H        1.75540661       0.64125158       0.99799897
12
Frame=3 idx=004929 GeodesicLength=0.11316500501655351 rxn_smarts="[O:1]=[C:2]1[C:3]([H:7])([H:8])[C:4]([H:9])([H:10])[O:5][C:6]1([H:11])[H:12]>>[O:1]([C:2]1=[C:6]([H:11])[O:5][C:4]([H:9])([H:10])[C:3]1([H:7])[H:8])[H:12]"
O        0.99892405       1.74518011       0.91255788
C        0.46629543       0.86650555       0.14637280
C       -0.96212083       0.52244309      -0.12412282
C       -0.83184345      -1.01464294      -0.11586826
O        0.50870798      -1.32884304      -0.50086335
C        1.29266127      -0.22742959      -0.15349030
H       -1.23714197       0.90370142      -1.11132326
H       -1.66089599       0.90499097       0.61679138
H       -1.01354488      -1.39712067       0.89550104
H       -1.50821135      -1.51116253      -0.80966919
H        2.18358960      -0.10357882      -0.76002793
H        1.76358014       0.63995647       1.00414201
12
Frame=4 idx=004929 GeodesicLength=0.15088925167305203 rxn_smarts="[O:1]=[C:2]1[C:3]([H:7])([H:8])[C:4]([H:9])([H:10])[O:5][C:6]1([H:11])[H:12]>>[O:1]([C:2]1=[C:6]([H:11])[O:5][C:4]([H:9])([H:10])[C:3]1([H:7])[H:8])[H:12]"
O        0.99420246       1.74459445       0.91308370
C        0.46605824       0.87279927       0.13561508
C       -0.96305704       0.52164115      -0.12484475
C       -0.83234551      -1.01427407      -0.11678287
O        0.50913744      -1.32741533      -0.49887720
C        1.29320781      -0.22659999      -0.15169683
H       -1.24438355       0.90415466      -1.10978989
H       -1.65801660       0.90456261       0.61963498
H       -1.01462800      -1.39746409       0.89424123
H       -1.50683022      -1.51165371      -0.81178235
H        2.18458007      -0.10904454      -0.75904501
H        1.77207488       0.63869958       1.01024391
12
Frame=5 idx=004929 GeodesicLength=0.18861502057807653 rxn_smarts="[O:1]=[C:2]1[C:3]([H:7])([H:8])[C:4]([H:9])([H:10])[O:5][C:6]1([H:11])[H:12]>>[O:1]([C:2]1=[C:6]([H:11])[O:5][C:4]([H:9])([H:10])[C:3]1([H:7])[H:8])[H:12]"
O        0.98940994       1.74382017       0.91362123
C        0.46575767       0.87906329       0.12487590
C       -0.96397918       0.52084586      -0.12558391
C       -0.83286216      -1.01390661      -0.11769128
O        0.50959158      -1.32599328      -0.49671543
C        1.29371036      -0.22567735      -0.14986447
H       -1.25159048       0.90459586      -1.10824062
H       -1.65514722       0.90414435       0.62240163
H       -1.01582428      -1.39779906       0.89297270
H       -1.50538703      -1.51214189      -0.81395735
H        2.18541915      -0.11442913      -0.75812334
H        1.78090165       0.63747779       1.01630495
12
Frame=6 idx=004929 GeodesicLength=0.22634428453333977 rxn_smarts="[O:1]=[C:2]1[C:3]([H:7])([H:8])[C:4]([H:9])([H:10])[O:5][C:6]1([H:11])[H:12]>>[O:1]([C:2]1=[C:6]([H:11])[O:5][C:4]([H:9])([H:10])[C:3]1([H:7])[H:8])[H:12]"
O        0.98455496       1.74285587       0.91415902
C        0.46539026       0.88530095       0.11415334
C       -0.96489136       0.52005652      -0.12633915
C       -0.83339501      -1.01354072      -0.11859639
O        0.51007098      -1.32457637      -0.49436972
C        1.29416887      -0.22465976      -0.14798815
H       -1.25877221       0.90502637      -1.10667177
H       -1.65228948       0.90373268       0.62509768
H       -1.01714076      -1.39812729       0.89169083
H       -1.50387595      -1.51262654      -0.81620435
H        2.18610865      -0.11973662      -0.75725633
H        1.79007106       0.63629489       1.02232499
12
Frame=7 idx=004929 GeodesicLength=0.26408195354795366 rxn_smarts="[O:1]=[C:2]1[C:3]([H:7])([H:8])[C:4]([H:9])([H:10])[O:5][C:6]1([H:11])[H:12]>>[O:1]([C:2]1=[C:6]([H:11])[O:5][C:4]([H:9])([H:10])[C:3]1([H:7])[H:8])[H:12]"
O        0.97964709       1.74170568       0.91467768
C        0.46495274       0.89151644       0.10343878
C       -0.96579817       0.51927292      -0.12710833
C       -0.83394436      -1.01317619      -0.11950153
O        0.51057477      -1.32316063      -0.49184234
C        1.29458292      -0.22354544      -0.14606481
H       -1.26594472       0.90544769      -1.10507762
H       -1.64944135       0.90332399       0.62773412
H       -1.01857905      -1.39845204       0.89039047
H       -1.50229330      -1.51310639      -0.81853006
H        2.18665949      -0.12497550      -0.75642551
H        1.79958395       0.63514945       1.02830916
12
Frame=8 idx=004929 GeodesicLength=0.30182463490341804 rxn_smarts="[O:1]=[C:2]1[C:3]([H:7])([H:8])[C:4]([H:9])([H:10])[O:5][C:6]1([H:11])[H:12]>>[O:1]([C:2]1=[C:6]([H:11])[O:5][C:4]([H:9])([H:10])[C:3]1([H:7])[H:8])[H:12]"
O        0.97469836       1.74036814       0.91516539
C        0.46443970       0.89771325       0.09272914
C       -0.96670367       0.51849506      -0.12789117
C       -0.83451055      -1.01281342      -0.12040909
O        0.51110397      -1.32174522      -0.48912894
C        1.29495113      -0.22233178      -0.14409163
H       -1.27311566       0.90586157      -1.10345427
H       -1.64660382       0.90291480       0.63031695
H       -1.02014414      -1.39877583       0.88906777
H       -1.50063445      -1.51358112      -0.82094109
H        2.18707437      -0.13014915      -0.75562121
H        1.80944477       0.63404369       1.03425814
12
Frame=9 idx=004929 GeodesicLength=0.3395840914793878 rxn_smarts="[O:1]=[C:2]1[C:3]([H:7])([H:8])[C:4]([H:9])([H:10])[O:5][C:6]1([H:11])[H:12]>>[O:1]([C:2]1=[C:6]([H:11])[O:5][C:4]([H:9])([H:10])[C:3]1([H:7])[H:8])[H:12]"
O        0.96971251       1.73884711       0.91562015
C        0.46384852       0.90389437       0.08201641
C       -0.96761166       0.51772154      -0.12868640
C       -0.83509458      -1.01245104      -0.12132189
O        0.51165651      -1.32032607      -0.48622113
C        1.29527371      -0.22101628      -0.14206489
H       -1.28029844       0.90626673      -1.10179885
H       -1.64377474       0.90250113       0.63285383
H       -1.02184428      -1.39909906       0.88771559
H       -1.49889227      -1.51405064      -0.82344547
H        2.18735863      -0.13526513      -0.75483044
H        1.81966608       0.63297733       1.04016309
12
Frame=10 idx=004929 GeodesicLength=0.37735535469473325 rxn_smarts="[O:1]=[C:2]1[C:3]([H:7])([H:8])[C:4]([H:9])([H:10])[O:5][C:6]1([H:11])[H:12]>>[O:1]([C:2]1=[C:6]([H:11])[O:5][C:4]([H:9])([H:10])[C:3]1([H:7])[H:8])[H:12]"
O        0.96469894       1.73712914       0.91603820
C        0.46317328       0.91005648       0.07132255
C       -0.96852500       0.51695352      -0.12949816
C       -0.83569764      -1.01209040      -0.12223683
O        0.51223035      -1.31890114      -0.48312590
C        1.29554924      -0.21959711      -0.13998295
H       -1.28747446       0.90665894      -1.10012344
H       -1.64096704       0.90208815       0.63533091
H       -1.02367433      -1.39942321       0.88633964
H       -1.49707291      -1.51451756      -0.82603245
H        2.18750109      -0.14030458      -0.75406647
H        1.83025849       0.63194776       1.04603492
12
Frame=11 idx=004929 GeodesicLength=0.4151295687318285 rxn_smarts="[O:1]=[C:2]1[C:3]([H:7])([H:8])[C:4]([H:9])([H:10])[O:5][C:6]1([H:11])[H:12]>>[O:1]([C:2]1=[C:6]([H:11])[O:5][C:4]([H:9])([H:10])[C:3]1([H:7])[H:8])[H:12]"
O        0.95967307       1.73522908       0.91640673
C        0.46241054       0.91620140       0.06063586
C       -0.96944826       0.51618931      -0.13032378
C       -0.83632029      -1.01173189      -0.12315842
O        0.51282490      -1.31746387      -0.47984801
C        1.29577664      -0.21807464      -0.13784269
H       -1.29465896       0.90704073      -1.09841977
H       -1.63817758       0.90167013       0.63776080
H       -1.02563492      -1.39975330       0.88493328
H       -1.49517414      -1.51498145      -0.82870928
H        2.18751359      -0.14528154      -0.75330363
H        1.84121542       0.63095604       1.05186892
12
Frame=12 idx=004929 GeodesicLength=0.45291737490754636 rxn_smarts="[O:1]=[C:2]1[C:3]([H:7])([H:8])[C:4]([H:9])([H:10])[O:5][C:6]1([H:11])[H:12]>>[O:1]([C:2]1=[C:6]([H:11])[O:5][C:4]([H:9])([H:10])[C:3]1([H:7])[H:8])[H:12]"
O        0.95463779       1.73313944       0.91671365
C        0.46155524       0.92233319       0.04995324
C       -0.97038650       0.51542770      -0.13116007
C       -0.83696481      -1.01137581      -0.12409212
O        0.51343724      -1.31601375      -0.47637322
C        1.29595519      -0.21644761      -0.13563154
H       -1.30186359       0.90741626      -1.09668057
H       -1.63540592       0.90124280       0.64015263
H       -1.02773887      -1.40009319       0.88348501
H       -1.49318603      -1.51544128      -0.83149022
H        2.18739826      -0.15020366      -0.75252572
H        1.85256198       0.63001592       1.05764892
12
Frame=13 idx=004929 GeodesicLength=0.4907169763069947 rxn_smarts="[O:1]=[C:2]1[C:3]([H:7])([H:8])[C:4]([H:9])([H:10])[O:5][C:6]1([H:11])[H:12]>>[O:1]([C:2]1=[C:6]([H:11])[O:5][C:4]([H:9])([H:10])[C:3]1([H:7])[H:8])[H:12]"
O        0.94961263       1.73087945       0.91693495
C        0.46060426       0.92844678       0.03928145
C       -0.97134189       0.51466760      -0.13200624
C       -0.83763052      -1.01102350      -0.12503744
O        0.51406759      -1.31454833      -0.47271251
C        1.29608491      -0.21471539      -0.13335544
H       -1.30908499       0.90778547      -1.09490564
H       -1.63265510       0.90080593       0.64250707
H       -1.02997865      -1.40044677       0.88199705
H       -1.49111308      -1.51589750      -0.83437041
H        2.18715806      -0.15506159      -0.75173177
H        1.86427679       0.62910784       1.06339893
12
Frame=14 idx=004929 GeodesicLength=0.5285274953954908 rxn_smarts="[O:1]=[C:2]1[C:3]([H:7])([H:8])[C:4]([H:9])([H:10])[O:5][C:6]1([H:11])[H:12]>>[O:1]([C:2]1=[C:6]([H:11])[O:5][C:4]([H:9])([H:10])[C:3]1([H:7])[H:8])[H:12]"
O        0.94460957       1.72845376       0.91706318
C        0.45955363       0.93454112       0.02862591
C       -0.97231742       0.51390832      -0.13286324
C       -0.83831709      -1.01067551      -0.12599362
O        0.51471346      -1.31306375      -0.46887002
C        1.29616555      -0.21287653      -0.13101636
H       -1.31631969       0.90814687      -1.09309831
H       -1.62992948       0.90036060       0.64482128
H       -1.03234968      -1.40081413       0.88047017
H       -1.48895579      -1.51635255      -0.83734462
H        2.18679290      -0.15984725      -0.75092122
H        1.87635404       0.62821906       1.06912686
12
Frame=15 idx=004929 GeodesicLength=0.5663466473599366 rxn_smarts="[O:1]=[C:2]1[C:3]([H:7])([H:8])[C:4]([H:9])([H:10])[O:5][C:6]1([H:11])[H:12]>>[O:1]([C:2]1=[C:6]([H:11])[O:5][C:4]([H:9])([H:10])[C:3]1([H:7])[H:8])[H:12]"
O        0.93964147       1.72586965       0.91708841
C        0.45839994       0.94061519       0.01799089
C       -0.97331594       0.51314926      -0.13373157
C       -0.83902386      -1.01033238      -0.12695994
O        0.51537271      -1.31155576      -0.46485194
C        1.29619712      -0.21092992      -0.12861706
H       -1.32356518       0.90849912      -1.09126127
H       -1.62723251       0.89990766       0.64709374
H       -1.03484599      -1.40119584       0.87890541
H       -1.48671539      -1.51680864      -0.84040716
H        2.18630430      -0.16455329      -0.75009239
H        1.88878334       0.62733496       1.07484288
12
Frame=16 idx=004929 GeodesicLength=0.6041718236163661 rxn_smarts="[O:1]=[C:2]1[C:3]([H:7])([H:8])[C:4]([H:9])([H:10])[O:5][C:6]1([H:11])[H:12]>>[O:1]([C:2]1=[C:6]([H:11])[O:5][C:4]([H:9])([H:10])[C:3]1([H:7])[H:8])[H:12]"
O        0.93472129       1.72313725       0.91699855
C        0.45714027       0.94666787       0.00737982
C       -0.97433998       0.51238981      -0.13461143
C       -0.83974985      -1.00999458      -0.12793566
O        0.51604330      -1.31001990      -0.46066621
C        1.29617993      -0.20887476      -0.12616112
H       -1.33081947       0.90884092      -1.08939667
H       -1.62456674       0.89944789       0.64932393
H       -1.03746017      -1.40159254       0.87730408
H       -1.48439363      -1.51726780      -0.84355167
H        2.18569500      -0.16917254      -0.74924321
H        1.90155003       0.62643838       1.08055958
