12
Frame=0 idx=011935 GeodesicLength=0.0 rxn_smarts="[N:1]([c:2]1[c:3]([H:10])[n:4]([H:11])[c:5]([O:6][H:12])[n:7]1)([H:8])[H:9]>>[N-:1]([C+:2]1[C:3]([H:8])([H:10])[N:4]([H:11])[C+:5]([O:6][H:12])[N-:7]1)[H:9]"
N        2.08408384       0.65047243       0.19368354
C        0.83977761       0.40527062      -0.12715714
C        0.61230960      -1.01679806       0.06992512
N       -0.82842638      -0.98379627       0.26324432
C       -1.22860533       0.25389566      -0.03449603
O       -2.51772205       0.55263557       0.00979311
N       -0.28747708       1.13977998      -0.31578638
H        1.93528921      -0.61732389       0.60206738
H        2.56017018       1.49619830      -0.09223402
H        0.88529205      -1.62166243      -0.79728511
H       -1.45564086      -1.75007051       0.42094125
H       -2.59905079       1.49139858      -0.19269601
12
Frame=1 idx=011935 GeodesicLength=0.038304912354585566 rxn_smarts="[N:1]([c:2]1[c:3]([H:10])[n:4]([H:11])[c:5]([O:6][H:12])[n:7]1)([H:8])[H:9]>>[N-:1]([C+:2]1[C:3]([H:8])([H:10])[N:4]([H:11])[C+:5]([O:6][H:12])[N-:7]1)[H:9]"
N        2.08878806       0.64660864       0.17936685
C        0.84568349       0.39904824      -0.15179815
C        0.61053679      -1.01920009       0.06379504
N       -0.82690253      -0.98083457       0.26733175
C       -1.22612326       0.25634951      -0.03677482
O       -2.51529313       0.55656438       0.01067181
N       -0.28346764       1.14046645      -0.31158905
H        1.93973995      -0.62579362       0.60489785
H        2.53586370       1.52017938      -0.06793734
H        0.88175832      -1.64186271      -0.79065042
H       -1.45460223      -1.74706784       0.42353962
H       -2.59598152       1.49554223      -0.19085315
12
Frame=2 idx=011935 GeodesicLength=0.07680742895354797 rxn_smarts="[N:1]([c:2]1[c:3]([H:10])[n:4]([H:11])[c:5]([O:6][H:12])[n:7]1)([H:8])[H:9]>>[N-:1]([C+:2]1[C:3]([H:8])([H:10])[N:4]([H:11])[C+:5]([O:6][H:12])[N-:7]1)[H:9]"
N        2.09370076       0.64272460       0.16256405
C        0.85138084       0.39271545      -0.17725889
C        0.60893383      -1.02154691       0.05714322
N       -0.82507911      -0.97777719       0.27142375
C       -1.22350697       0.25877159      -0.03942360
O       -2.51239952       0.56135485       0.01454270
N       -0.27921670       1.14064677      -0.30905102
H        1.94437688      -0.63373725       0.60697578
H        2.50964585       1.54336645      -0.03921500
H        0.87814471      -1.66217599      -0.78392011
H       -1.45322777      -1.74383004       0.42710770
H       -2.59275280       1.49948767      -0.19088858
12
Frame=3 idx=011935 GeodesicLength=0.11493443603306033 rxn_smarts="[N:1]([c:2]1[c:3]([H:10])[n:4]([H:11])[c:5]([O:6][H:12])[n:7]1)([H:8])[H:9]>>[N-:1]([C+:2]1[C:3]([H:8])([H:10])[N:4]([H:11])[C+:5]([O:6][H:12])[N-:7]1)[H:9]"
N        2.09742092       0.64030846       0.14634550
C        0.85660727       0.38630828      -0.20310984
C        0.60759785      -1.02344709       0.05169371
N       -0.82329916      -0.97478412       0.27379165
C       -1.22107526       0.26029624      -0.04633540
O       -2.50968963       0.56504188       0.01250109
N       -0.27509586       1.13950030      -0.31144236
H        1.94780007      -0.63919266       0.61218760
H        2.48237335       1.56324423      -0.01266031
H        0.87691883      -1.68301752      -0.77390457
H       -1.45173485      -1.74066937       0.42896978
H       -2.58782352       1.50641137      -0.17803685
12
Frame=4 idx=011935 GeodesicLength=0.15323494288047868 rxn_smarts="[N:1]([c:2]1[c:3]([H:10])[n:4]([H:11])[c:5]([O:6][H:12])[n:7]1)([H:8])[H:9]>>[N-:1]([C+:2]1[C:3]([H:8])([H:10])[N:4]([H:11])[C+:5]([O:6][H:12])[N-:7]1)[H:9]"
N        2.10139808       0.63814155       0.12968973
C        0.86150005       0.38059607      -0.22762992
C        0.60637906      -1.02494338       0.04533215
N       -0.82115196      -0.97164628       0.27682089
C       -1.21857550       0.26248054      -0.05023782
O       -2.50692648       0.56920551       0.01405688
N       -0.27103614       1.13899884      -0.31160508
H        1.95193279      -0.64489326       0.61577546
H        2.45531207       1.58018531       0.01466952
H        0.87493792      -1.70195328      -0.76562075
H       -1.44974980      -1.73751628       0.43149652
H       -2.58402011       1.51134465      -0.17274756
12
Frame=5 idx=011935 GeodesicLength=0.19170954361889725 rxn_smarts="[N:1]([c:2]1[c:3]([H:10])[n:4]([H:11])[c:5]([O:6][H:12])[n:7]1)([H:8])[H:9]>>[N-:1]([C+:2]1[C:3]([H:8])([H:10])[N:4]([H:11])[C+:5]([O:6][H:12])[N-:7]1)[H:9]"
N        2.10485568       0.63692627       0.11362591
C        0.86609135       0.37514273      -0.25177518
C        0.60534618      -1.02611954       0.03913673
N       -0.81893981      -0.96854920       0.27910711
C       -1.21620218       0.26447982      -0.05517410
O       -2.50427702       0.57316021       0.01460700
N       -0.26713443       1.13809117      -0.31375037
H        1.95575947      -0.64953773       0.62038288
H        2.42805874       1.59434238       0.04098966
H        0.87391689      -1.72038255      -0.75643717
H       -1.44758745      -1.73448025       0.43342018
H       -2.57988742       1.51692670      -0.16413264
12
Frame=6 idx=011935 GeodesicLength=0.2302937056067717 rxn_smarts="[N:1]([c:2]1[c:3]([H:10])[n:4]([H:11])[c:5]([O:6][H:12])[n:7]1)([H:8])[H:9]>>[N-:1]([C+:2]1[C:3]([H:8])([H:10])[N:4]([H:11])[C+:5]([O:6][H:12])[N-:7]1)[H:9]"
N        2.10802748       0.63632636       0.09787242
C        0.87042011       0.37001724      -0.27534026
C        0.60445401      -1.02701980       0.03271615
N       -0.81656674      -0.96542480       0.28115671
C       -1.21387330       0.26655868      -0.05986889
O       -2.50164083       0.57717142       0.01574158
N       -0.26336918       1.13708236      -0.31671188
H        1.95960032      -0.65370510       0.62505190
H        2.40069650       1.60609519       0.06709890
H        0.87326177      -1.73796871      -0.74725898
H       -1.44515710      -1.73147579       0.43532565
H       -2.57585303       1.52234296      -0.15578329
12
Frame=7 idx=011935 GeodesicLength=0.2691725456693316 rxn_smarts="[N:1]([c:2]1[c:3]([H:10])[n:4]([H:11])[c:5]([O:6][H:12])[n:7]1)([H:8])[H:9]>>[N-:1]([C+:2]1[C:3]([H:8])([H:10])[N:4]([H:11])[C+:5]([O:6][H:12])[N-:7]1)[H:9]"
N        2.11090419       0.63638612       0.08278553
C        0.87449551       0.36525135      -0.29821039
C        0.60365727      -1.02766160       0.02617405
N       -0.81406099      -0.96229206       0.28294746
C       -1.21159463       0.26869170      -0.06447667
O       -2.49909775       0.58100122       0.01640439
N       -0.25975203       1.13603933      -0.32033224
H        1.96344586      -0.65743827       0.63004286
H        2.37341660       1.61555275       0.09224171
H        0.87289109      -1.75472253      -0.73800745
H       -1.44249195      -1.72853426       0.43713215
H       -2.57181316       1.52772626      -0.14670137
12
Frame=8 idx=011935 GeodesicLength=0.3076039596555609 rxn_smarts="[N:1]([c:2]1[c:3]([H:10])[n:4]([H:11])[c:5]([O:6][H:12])[n:7]1)([H:8])[H:9]>>[N-:1]([C+:2]1[C:3]([H:8])([H:10])[N:4]([H:11])[C+:5]([O:6][H:12])[N-:7]1)[H:9]"
N        2.11362722       0.63672242       0.06734155
C        0.87832357       0.36081979      -0.32062472
C        0.60298961      -1.02793071       0.01900076
N       -0.81120609      -0.95887366       0.28511346
C       -1.20925395       0.27106819      -0.06791934
O       -2.49647071       0.58493499       0.01861250
N       -0.25628240       1.13501298      -0.32399223
H        1.96760919      -0.66112709       0.63386478
H        2.34583413       1.62257287       0.11885528
H        0.87239889      -1.77030270      -0.72950175
H       -1.43931121      -1.72521724       0.44000522
H       -2.56825826       1.53232015      -0.14075552
12
Frame=9 idx=011935 GeodesicLength=0.34635927043742853 rxn_smarts="[N:1]([c:2]1[c:3]([H:10])[n:4]([H:11])[c:5]([O:6][H:12])[n:7]1)([H:8])[H:9]>>[N-:1]([C+:2]1[C:3]([H:8])([H:10])[N:4]([H:11])[C+:5]([O:6][H:12])[N-:7]1)[H:9]"
N        2.11598267       0.63770926       0.05355405
C        0.88190516       0.35692601      -0.34176351
C        0.60234004      -1.02799551       0.01174782
N       -0.80832973      -0.95560364       0.28691729
C       -1.20701549       0.27354915      -0.07089775
O       -2.49402201       0.58866543       0.02067844
N       -0.25298217       1.13423272      -0.32710327
H        1.97160877      -0.66472943       0.63845524
H        2.31929227       1.62763343       0.14241400
H        0.87223714      -1.78484688      -0.72123126
H       -1.43603996      -1.72221882       0.44213335
H       -2.56497669       1.53667827      -0.13490440
12
Frame=10 idx=011935 GeodesicLength=0.3851805648726849 rxn_smarts="[N:1]([c:2]1[c:3]([H:10])[n:4]([H:11])[c:5]([O:6][H:12])[n:7]1)([H:8])[H:9]>>[N-:1]([C+:2]1[C:3]([H:8])([H:10])[N:4]([H:11])[C+:5]([O:6][H:12])[N-:7]1)[H:9]"
N        2.11810991       0.63912860       0.04049273
C        0.88530205       0.35341515      -0.36216018
C        0.60174446      -1.02786427       0.00420638
N       -0.80532835      -0.95232775       0.28863779
C       -1.20482679       0.27613612      -0.07339169
O       -2.49164189       0.59236483       0.02330876
N       -0.24983457       1.13355411      -0.33018441
H        1.97561728      -0.66831872       0.64308439
H        2.29318890       1.63098103       0.16504490
H        0.87224463      -1.79853496      -0.71329463
H       -1.43255872      -1.71926611       0.44431577
H       -2.56201691       1.54073197      -0.13005981
12
Frame=11 idx=011935 GeodesicLength=0.42406721401718805 rxn_smarts="[N:1]([c:2]1[c:3]([H:10])[n:4]([H:11])[c:5]([O:6][H:12])[n:7]1)([H:8])[H:9]>>[N-:1]([C+:2]1[C:3]([H:8])([H:10])[N:4]([H:11])[C+:5]([O:6][H:12])[N-:7]1)[H:9]"
N        2.11989976       0.64102881       0.02809890
C        0.88859768       0.35008230      -0.38221022
C        0.60121236      -1.02759759      -0.00345790
N       -0.80225748      -0.94903681       0.29001014
C       -1.20269646       0.27864280      -0.07636637
O       -2.48929290       0.59596856       0.02558186
N       -0.24683514       1.13271663      -0.33434092
H        1.97938930      -0.67162860       0.64821582
H        2.26711534       1.63291328       0.18693237
H        0.87268950      -1.81176486      -0.70509658
H       -1.42892568      -1.71629941       0.44646388
H       -2.55889628       1.54497489      -0.12383098
12
Frame=12 idx=011935 GeodesicLength=0.4629844551292154 rxn_smarts="[N:1]([c:2]1[c:3]([H:10])[n:4]([H:11])[c:5]([O:6][H:12])[n:7]1)([H:8])[H:9]>>[N-:1]([C+:2]1[C:3]([H:8])([H:10])[N:4]([H:11])[C+:5]([O:6][H:12])[N-:7]1)[H:9]"
N        2.12147016       0.64323798       0.01656036
C        0.89172109       0.34712227      -0.40144740
C        0.60068930      -1.02717049      -0.01135935
N       -0.79909613      -0.94577346       0.29125715
C       -1.20061070       0.28123781      -0.07886862
O       -2.48698879       0.59951276       0.02834384
N       -0.24397262       1.13202461      -0.33810465
H        1.98306771      -0.67501659       0.65361004
H        2.24165193       1.63352189       0.20734791
H        0.87326263      -1.82417396      -0.69721560
H       -1.42513189      -1.71341986       0.44842245
H       -2.55606268       1.54889703      -0.11854613
12
Frame=13 idx=011935 GeodesicLength=0.5019653740349408 rxn_smarts="[N:1]([c:2]1[c:3]([H:10])[n:4]([H:11])[c:5]([O:6][H:12])[n:7]1)([H:8])[H:9]>>[N-:1]([C+:2]1[C:3]([H:8])([H:10])[N:4]([H:11])[C+:5]([O:6][H:12])[N-:7]1)[H:9]"
N        2.12280737       0.64577694       0.00570742
C        0.89475207       0.34439277      -0.42018743
C        0.60019314      -1.02663603      -0.01940388
N       -0.79588583      -0.94252333       0.29225783
C       -1.19858454       0.28381367      -0.08150520
O       -2.48475974       0.60293955       0.03086228
N       -0.24123910       1.13132454      -0.34222535
H        1.98653445      -0.67832466       0.65947655
H        2.21651205       1.63304591       0.22663710
H        0.87413141      -1.83606756      -0.68925630
H       -1.42123016      -1.71058204       0.45024300
H       -2.55323112       1.55284024      -0.11260602
12
Frame=14 idx=011935 GeodesicLength=0.5410358210768402 rxn_smarts="[N:1]([c:2]1[c:3]([H:10])[n:4]([H:11])[c:5]([O:6][H:12])[n:7]1)([H:8])[H:9]>>[N-:1]([C+:2]1[C:3]([H:8])([H:10])[N:4]([H:11])[C+:5]([O:6][H:12])[N-:7]1)[H:9]"
N        2.12385734       0.64867241      -0.00444034
C        0.89777746       0.34172380      -0.43868294
C        0.59974556      -1.02605496      -0.02746889
N       -0.79269216      -0.93930061       0.29277193
C       -1.19664931       0.28623133      -0.08497803
O       -2.48261804       0.60622095       0.03245791
N       -0.23864085       1.13042791      -0.34749249
H        1.98960937      -0.68133754       0.66621653
H        2.19142198       1.63173938       0.24478352
H        0.87551318      -1.84771247      -0.68075665
H       -1.41730262      -1.70777284       0.45177500
H       -2.55002190       1.55716266      -0.10418557
12
Frame=15 idx=011935 GeodesicLength=0.5801396825345504 rxn_smarts="[N:1]([c:2]1[c:3]([H:10])[n:4]([H:11])[c:5]([O:6][H:12])[n:7]1)([H:8])[H:9]>>[N-:1]([C+:2]1[C:3]([H:8])([H:10])[N:4]([H:11])[C+:5]([O:6][H:12])[N-:7]1)[H:9]"
N        2.12458107       0.65190284      -0.01400544
C        0.90079679       0.33908951      -0.45702504
C        0.59933658      -1.02542049      -0.03562046
N       -0.78947739      -0.93607749       0.29282325
C       -1.19476840       0.28849605      -0.08923499
O       -2.48042076       0.60947876       0.03369548
N       -0.23617780       1.12931281      -0.35393440
H        1.99225586      -0.68407188       0.67371159
H        2.16620492       1.62960586       0.26213147
H        0.87734233      -1.85910018      -0.67175943
H       -1.41329349      -1.70494587       0.45306105
H       -2.54637972       1.56173008      -0.09384308
12
Frame=16 idx=011935 GeodesicLength=0.6193039658077945 rxn_smarts="[N:1]([c:2]1[c:3]([H:10])[n:4]([H:11])[c:5]([O:6][H:12])[n:7]1)([H:8])[H:9]>>[N-:1]([C+:2]1[C:3]([H:8])([H:10])[N:4]([H:11])[C+:5]([O:6][H:12])[N-:7]1)[H:9]"
N        2.12505863       0.65538213      -0.02286655
C        0.90383300       0.33650755      -0.47504836
C        0.59895758      -1.02477451      -0.04380392
N       -0.78631590      -0.93293380       0.29235593
C       -1.19297626       0.29062797      -0.09412403
O       -2.47824466       0.61271514       0.03455971
N       -0.23383556       1.12805731      -0.36113637
H        1.99440617      -0.68656648       0.68217846
H        2.14116015       1.62691974       0.27803698
H        0.87964243      -1.87020075      -0.66227454
H       -1.40932131      -1.70222583       0.45377194
H       -2.54236426       1.56649154      -0.08164924
