17
Frame=0 idx=010460 GeodesicLength=0.0 rxn_smarts="[C:1]([C:2]([C@@:3]([C:4]([H:13])([H:14])[H:15])([O:5][H:16])[C:6]#[C:7][H:17])([H:11])[H:12])([H:8])([H:9])[H:10]>>[C:1]([C:2]([C:3]([C:4]([H:13])([H:14])[H:15])=[C:6]=[C:7]([O:5][H:16])[H:17])([H:11])[H:12])([H:8])([H:9])[H:10]"
C        2.06493312       0.33517497       0.09531730
C        0.94873445      -0.48855830      -0.52465848
C       -0.45164639       0.01399903      -0.25781325
C       -1.53076553      -0.87623785      -0.81790092
O       -0.61820578      -0.03457162       1.40687000
C       -0.69692596       1.46795153      -0.32163936
C       -0.89761576       1.56644957       0.95194552
H        3.03466913      -0.10097013      -0.14868725
H        1.97061461       0.36644259       1.18141063
H        2.04405113       1.35982055      -0.27570118
H        1.00837306      -1.53062651      -0.19617690
H        1.05202960      -0.49623524      -1.61447774
H       -2.52011530      -0.53592552      -0.50867344
H       -1.49231126      -0.81336317      -1.90614964
H       -1.38116818      -1.91916003      -0.52873368
H       -1.44889754      -0.47137077       1.63360088
H       -1.08575340       2.15718097       1.83146755
17
Frame=1 idx=010460 GeodesicLength=0.09217061870022554 rxn_smarts="[C:1]([C:2]([C@@:3]([C:4]([H:13])([H:14])[H:15])([O:5][H:16])[C:6]#[C:7][H:17])([H:11])[H:12])([H:8])([H:9])[H:10]>>[C:1]([C:2]([C:3]([C:4]([H:13])([H:14])[H:15])=[C:6]=[C:7]([O:5][H:16])[H:17])([H:11])[H:12])([H:8])([H:9])[H:10]"
C        2.06801208       0.33195354       0.09020426
C        0.95134269      -0.49094772      -0.52990712
C       -0.45040953       0.00430615      -0.25337473
C       -1.52779659      -0.88025156      -0.82748866
O       -0.62518648      -0.03766986       1.43135947
C       -0.69674030       1.45334166      -0.30373434
C       -0.90088988       1.57806859       0.96439423
H        3.03812618      -0.10001378      -0.15977104
H        1.97783284       0.35690976       1.17678212
H        2.04418959       1.35887676      -0.27453460
H        1.01474414      -1.53456601      -0.20697390
H        1.05273810      -0.49372392      -1.61998244
H       -2.51912111      -0.54276350      -0.52183898
H       -1.48488263      -0.81194086      -1.91538565
H       -1.37967008      -1.92488131      -0.54391686
H       -1.46193836      -0.45642433       1.66764271
H       -1.10035067       2.18972639       1.82652553
17
Frame=2 idx=010460 GeodesicLength=0.18429021141967333 rxn_smarts="[C:1]([C:2]([C@@:3]([C:4]([H:13])([H:14])[H:15])([O:5][H:16])[C:6]#[C:7][H:17])([H:11])[H:12])([H:8])([H:9])[H:10]>>[C:1]([C:2]([C:3]([C:4]([H:13])([H:14])[H:15])=[C:6]=[C:7]([O:5][H:16])[H:17])([H:11])[H:12])([H:8])([H:9])[H:10]"
C        2.07106100       0.32857678       0.08514710
C        0.95400176      -0.49339874      -0.53537745
C       -0.44910632      -0.00585375      -0.24882652
C       -1.52475238      -0.88430834      -0.83723837
O       -0.63220984      -0.04090907       1.45640381
C       -0.69658846       1.43819606      -0.28516807
C       -0.90383630       1.58983328       0.97694417
H        3.04156530      -0.09896443      -0.17096569
H        1.98504284       0.34680877       1.17216951
H        2.04416476       1.35787394      -0.27289775
H        1.02129027      -1.53863683      -0.21838232
H        1.05339630      -0.49079435      -1.62569276
H       -2.51796126      -0.54978740      -0.53478667
H       -1.47755118      -0.81003094      -1.92470832
H       -1.37802265      -1.93072491      -0.55971697
H       -1.47473992      -0.44065819       1.70295116
H       -1.11575393       2.22277812       1.82014514
17
Frame=3 idx=010460 GeodesicLength=0.2763589273179897 rxn_smarts="[C:1]([C:2]([C@@:3]([C:4]([H:13])([H:14])[H:15])([O:5][H:16])[C:6]#[C:7][H:17])([H:11])[H:12])([H:8])([H:9])[H:10]>>[C:1]([C:2]([C:3]([C:4]([H:13])([H:14])[H:15])=[C:6]=[C:7]([O:5][H:16])[H:17])([H:11])[H:12])([H:8])([H:9])[H:10]"
C        2.07407591       0.32503734       0.08015683
C        0.95670754      -0.49590629      -0.54107377
C       -0.44773525      -0.01650211      -0.24416353
C       -1.52163541      -0.88839687      -0.84715675
O       -0.63927624      -0.04430165       1.48203521
C       -0.69646822       1.42247789      -0.26589491
C       -0.90644241       1.60173795       0.98959057
H        3.04498051      -0.09781711      -0.18226104
H        1.99224114       0.33611715       1.16757514
H        2.04397176       1.35679979      -0.27075867
H        1.02801397      -1.54283286      -0.23043877
H        1.05399358      -0.48741236      -1.63160403
H       -2.51663993      -0.55699563      -0.54750949
H       -1.47032577      -0.80758793      -1.93411533
H       -1.37622717      -1.93667961      -0.57617406
H       -1.48722960      -0.42402662       1.73962341
H       -1.13200442       2.25628893       1.81216919
17
Frame=4 idx=010460 GeodesicLength=0.36837917533702247 rxn_smarts="[C:1]([C:2]([C@@:3]([C:4]([H:13])([H:14])[H:15])([O:5][H:16])[C:6]#[C:7][H:17])([H:11])[H:12])([H:8])([H:9])[H:10]>>[C:1]([C:2]([C:3]([C:4]([H:13])([H:14])[H:15])=[C:6]=[C:7]([O:5][H:16])[H:17])([H:11])[H:12])([H:8])([H:9])[H:10]"
C        2.07705889       0.32132206       0.07524214
C        0.95945791      -0.49846530      -0.54700229
C       -0.44628995      -0.02765921      -0.23937793
C       -1.51844786      -0.89249670      -0.85724592
O       -0.64637851      -0.04785506       1.50829186
C       -0.69636747       1.40615023      -0.24586416
C       -0.90868415       1.61378172       1.00232787
H        3.04836954      -0.09657289      -0.19365412
H        1.99943524       0.32479740       1.16299864
H        2.04361262       1.35563596      -0.26808232
H        1.03491788      -1.54715095      -0.24318557
H        1.05451812      -0.48354091      -1.63771374
H       -2.51515909      -0.56437541      -0.55999386
H       -1.46321812      -0.80455574      -1.94359860
H       -1.37428691      -1.94272643      -0.59332720
H       -1.49931535      -0.40646214       1.77777451
H       -1.14922281       2.29017336       1.80241069
17
Frame=5 idx=010460 GeodesicLength=0.4603402690265981 rxn_smarts="[C:1]([C:2]([C@@:3]([C:4]([H:13])([H:14])[H:15])([O:5][H:16])[C:6]#[C:7][H:17])([H:11])[H:12])([H:8])([H:9])[H:10]>>[C:1]([C:2]([C:3]([C:4]([H:13])([H:14])[H:15])=[C:6]=[C:7]([O:5][H:16])[H:17])([H:11])[H:12])([H:8])([H:9])[H:10]"
C        2.07995854       0.31746579       0.07044651
C        0.96222885      -0.50105651      -0.55315245
C       -0.44480377      -0.03936174      -0.23448186
C       -1.51519912      -0.89663495      -0.86754240
O       -0.65357828      -0.05159799       1.53519120
C       -0.69634800       1.38914934      -0.22504940
C       -0.91065919       1.62593469       1.01511198
H        3.05169235      -0.09517217      -0.20508095
H        2.00655301       0.31287400       1.15847521
H        2.04302322       1.35441305      -0.26481149
H        1.04200017      -1.55156560      -0.25664196
H        1.05496105      -0.47913482      -1.64400276
H       -2.51354199      -0.57198087      -0.57228721
H       -1.45622479      -0.80093165      -1.95318193
H       -1.37219449      -1.94888157      -0.61124227
H       -1.51093840      -0.38792401       1.81748405
H       -1.16692915       2.32440503       1.79076573
17
Frame=6 idx=010460 GeodesicLength=0.5522422949551958 rxn_smarts="[C:1]([C:2]([C@@:3]([C:4]([H:13])([H:14])[H:15])([O:5][H:16])[C:6]#[C:7][H:17])([H:11])[H:12])([H:8])([H:9])[H:10]>>[C:1]([C:2]([C:3]([C:4]([H:13])([H:14])[H:15])=[C:6]=[C:7]([O:5][H:16])[H:17])([H:11])[H:12])([H:8])([H:9])[H:10]"
C        2.08276625       0.31346150       0.06578655
C        0.96501386      -0.50366903      -0.55952749
C       -0.44327716      -0.05163929      -0.22947069
C       -1.51189103      -0.90079688      -0.87805712
O       -0.66088514      -0.05554040       1.56277146
C       -0.69641128       1.37142292      -0.20340219
C       -0.91237596       1.63818630       1.02791830
H        3.05493950      -0.09359670      -0.21652791
H        2.01358819       0.30031256       1.15400772
H        2.04218615       1.35311311      -0.26089546
H        1.04926531      -1.55606223      -0.27085291
H        1.05530700      -0.47414491      -1.65045806
H       -2.51179227      -0.57981306      -0.58438402
H       -1.44935521      -0.79665646      -1.96285969
H       -1.36994717      -1.95513111      -0.62997091
H       -1.52200767      -0.36832364       1.85888510
H       -1.18512335       2.35887732       1.77703733
17
Frame=7 idx=010460 GeodesicLength=0.6440670657978206 rxn_smarts="[C:1]([C:2]([C@@:3]([C:4]([H:13])([H:14])[H:15])([O:5][H:16])[C:6]#[C:7][H:17])([H:11])[H:12])([H:8])([H:9])[H:10]>>[C:1]([C:2]([C:3]([C:4]([H:13])([H:14])[H:15])=[C:6]=[C:7]([O:5][H:16])[H:17])([H:11])[H:12])([H:8])([H:9])[H:10]"
C        2.08541622       0.30935593       0.06131631
C        0.96778450      -0.50627359      -0.56611332
C       -0.44175076      -0.06453576      -0.22435999
C       -1.50853223      -0.90501804      -0.88882918
O       -0.66838648      -0.05971444       1.59104777
C       -0.69663613       1.35289445      -0.18090314
C       -0.91397722       1.65050144       1.04067047
H        3.05806062      -0.09175663      -0.22791819
H        2.02045361       0.28714560       1.14963647
H        2.04101333       1.35177617      -0.25626589
H        1.05671455      -1.56060579      -0.28583232
H        1.05554279      -0.46851240      -1.65705242
H       -2.50993510      -0.58794265      -0.59633679
H       -1.44260647      -0.79173058      -1.97265398
H       -1.36752814      -1.96149913      -0.64958327
H       -1.53247787      -0.34761928       1.90205669
H       -1.20315524       2.39353469       1.76112078
17
Frame=8 idx=010460 GeodesicLength=0.7358143152985419 rxn_smarts="[C:1]([C:2]([C@@:3]([C:4]([H:13])([H:14])[H:15])([O:5][H:16])[C:6]#[C:7][H:17])([H:11])[H:12])([H:8])([H:9])[H:10]>>[C:1]([C:2]([C:3]([C:4]([H:13])([H:14])[H:15])=[C:6]=[C:7]([O:5][H:16])[H:17])([H:11])[H:12])([H:8])([H:9])[H:10]"
C        2.08784795       0.30518479       0.05708102
C        0.97051568      -0.50884377      -0.57290217
C       -0.44025957      -0.07810105      -0.21916905
C       -1.50512558      -0.90932874      -0.89990401
O       -0.67616553      -0.06414564       1.62003924
C       -0.69709439       1.33347820      -0.15753451
C       -0.91559199       1.66284044       1.05328051
H        3.06100929      -0.08956991      -0.23918363
H        2.02707248       0.27338439       1.14538944
H        2.03941237       1.35042032      -0.25084761
H        1.06435737      -1.56515453      -0.30160956
H        1.05565248      -0.46217619      -1.66375367
H       -2.50798873      -0.59643955      -0.60819660
H       -1.43597559      -0.78614436      -1.98258231
H       -1.36491212      -1.96800402      -0.67015957
H       -1.54227365      -0.32571735       1.94712455
H       -1.22048045       2.42831698       1.74292793
17
Frame=9 idx=010460 GeodesicLength=0.8275083464065611 rxn_smarts="[C:1]([C:2]([C@@:3]([C:4]([H:13])([H:14])[H:15])([O:5][H:16])[C:6]#[C:7][H:17])([H:11])[H:12])([H:8])([H:9])[H:10]>>[C:1]([C:2]([C:3]([C:4]([H:13])([H:14])[H:15])=[C:6]=[C:7]([O:5][H:16])[H:17])([H:11])[H:12])([H:8])([H:9])[H:10]"
C        2.09011857       0.30084277       0.05306890
C        0.97321771      -0.51140193      -0.57992354
C       -0.43875242      -0.09236281      -0.21391290
C       -1.50166494      -0.91365723      -0.91129537
O       -0.68413927      -0.06874043       1.64980366
C       -0.69767810       1.31310309      -0.13328680
C       -0.91707490       1.67524543       1.06566460
H        3.06381254      -0.08716398      -0.25035133
H        2.03352778       0.25888078       1.14123219
H        2.03748268       1.34893178      -0.24460485
H        1.07217231      -1.56971768      -0.31827323
H        1.05561545      -0.45511695      -1.67055970
H       -2.50593003      -0.60525671      -0.61993671
H       -1.42949387      -0.77977307      -1.99260910
H       -1.36212746      -1.97455613      -0.69179323
H       -1.55090793      -0.30203939       1.99433041
H       -1.23817813       2.46278245       1.72244701
17
Frame=10 idx=010460 GeodesicLength=0.9191046792803305 rxn_smarts="[C:1]([C:2]([C@@:3]([C:4]([H:13])([H:14])[H:15])([O:5][H:16])[C:6]#[C:7][H:17])([H:11])[H:12])([H:8])([H:9])[H:10]>>[C:1]([C:2]([C:3]([C:4]([H:13])([H:14])[H:15])=[C:6]=[C:7]([O:5][H:16])[H:17])([H:11])[H:12])([H:8])([H:9])[H:10]"
C        2.09206361       0.29648022       0.04939466
C        0.97583015      -0.51387601      -0.58713807
C       -0.43733840      -0.10739201      -0.20861582
C       -1.49817170      -0.91811708      -0.92306232
O       -0.69254535      -0.07362747       1.68033024
C       -0.69861409       1.29165942      -0.10812648
C       -0.91882314       1.68759144       1.07768627
H        3.06635697      -0.08427548      -0.26126546
H        2.03960503       0.24375185       1.13726635
H        2.03497418       1.34745084      -0.23739041
H        1.08018301      -1.57421077      -0.33581926
H        1.05541317      -0.44721090      -1.67741819
H       -2.50381617      -0.61456843      -0.63165755
H       -1.42315049      -0.77268777      -2.00278565
H       -1.35910905      -1.98125628      -0.71456068
H       -1.55849763      -0.27690058       2.04369767
H       -1.25436010       2.49718901       1.69946468
17
Frame=11 idx=010460 GeodesicLength=1.010595426237583 rxn_smarts="[C:1]([C:2]([C@@:3]([C:4]([H:13])([H:14])[H:15])([O:5][H:16])[C:6]#[C:7][H:17])([H:11])[H:12])([H:8])([H:9])[H:10]>>[C:1]([C:2]([C:3]([C:4]([H:13])([H:14])[H:15])=[C:6]=[C:7]([O:5][H:16])[H:17])([H:11])[H:12])([H:8])([H:9])[H:10]"
C        2.09361846       0.29213336       0.04611764
C        0.97832057      -0.51623047      -0.59453594
C       -0.43605522      -0.12324762      -0.20329749
C       -1.49465358      -0.92273997      -0.93524812
O       -0.70146831      -0.07883587       1.71164890
C       -0.69998137       1.26903680      -0.08202928
C       -0.92101649       1.69981041       1.08920425
H        3.06858926      -0.08081790      -0.27185178
H        2.04522835       0.22799172       1.13353437
H        2.03179085       1.34600363      -0.22909456
H        1.08839180      -1.57858596      -0.35429208
H        1.05501868      -0.43837851      -1.68429668
H       -2.50166640      -0.62446391      -0.64340562
H       -1.41695782      -0.76486715      -2.01312344
H       -1.35583134      -1.98812127      -0.73855958
H       -1.56485486      -0.25019099       2.09534815
H       -1.26847257       2.53150369       1.67388125
17
Frame=12 idx=010460 GeodesicLength=1.1019760134713323 rxn_smarts="[C:1]([C:2]([C@@:3]([C:4]([H:13])([H:14])[H:15])([O:5][H:16])[C:6]#[C:7][H:17])([H:11])[H:12])([H:8])([H:9])[H:10]>>[C:1]([C:2]([C:3]([C:4]([H:13])([H:14])[H:15])=[C:6]=[C:7]([O:5][H:16])[H:17])([H:11])[H:12])([H:8])([H:9])[H:10]"
C        2.09475306       0.28779492       0.04328362
C        0.98067077      -0.51844429      -0.60211841
C       -0.43491241      -0.13997717      -0.19797070
C       -1.49111632      -0.92751569      -0.94787360
O       -0.71094777      -0.08438368       1.74380928
C       -0.70180248       1.24513540      -0.05495086
C       -0.92375579       1.71184225       1.10008339
H        3.07047834      -0.07675283      -0.28206746
H        2.05037631       0.21153499       1.13005611
H        2.02788566       1.34456820      -0.21960902
H        1.09679791      -1.58280295      -0.37375479
H        1.05440159      -0.42853241      -1.69116506
H       -2.49948770      -0.63497257      -0.65518819
H       -1.41094102      -0.75623884      -2.02360098
H       -1.35228008      -1.99511935      -0.76387714
H       -1.56969925      -0.22175251       2.14943562
H       -1.28042082       2.56561650       1.64550819
17
Frame=13 idx=010460 GeodesicLength=1.1932346754584906 rxn_smarts="[C:1]([C:2]([C@@:3]([C:4]([H:13])([H:14])[H:15])([O:5][H:16])[C:6]#[C:7][H:17])([H:11])[H:12])([H:8])([H:9])[H:10]>>[C:1]([C:2]([C:3]([C:4]([H:13])([H:14])[H:15])=[C:6]=[C:7]([O:5][H:16])[H:17])([H:11])[H:12])([H:8])([H:9])[H:10]"
C        2.09542575       0.28346291       0.04094684
C        0.98285740      -0.52048507      -0.60988279
C       -0.43392450      -0.15763139      -0.19264871
C       -1.48756749      -0.93243640      -0.96095797
O       -0.72104168      -0.09030560       1.77686659
C       -0.70411485       1.21984300      -0.02683832
C       -0.92716747       1.72360607       1.11017590
H        3.07198654      -0.07202844      -0.29186049
H        2.05501095       0.19431375       1.12686123
H        2.02318956       1.34313182      -0.20880795
H        1.10540366      -1.58680996      -0.39427416
H        1.05352509      -0.41757297      -1.69798223
H       -2.49728981      -0.64613487      -0.66701377
H       -1.40512793      -0.74672374      -2.03419508
H       -1.34843542      -2.00222437      -0.79060214
H       -1.57272099      -0.19143895       2.20609266
H       -1.29000881       2.59943420       1.61412040
17
Frame=14 idx=010460 GeodesicLength=1.2843506832041496 rxn_smarts="[C:1]([C:2]([C@@:3]([C:4]([H:13])([H:14])[H:15])([O:5][H:16])[C:6]#[C:7][H:17])([H:11])[H:12])([H:8])([H:9])[H:10]>>[C:1]([C:2]([C:3]([C:4]([H:13])([H:14])[H:15])=[C:6]=[C:7]([O:5][H:16])[H:17])([H:11])[H:12])([H:8])([H:9])[H:10]"
C        2.09561911       0.27909222       0.03916516
C        0.98486114      -0.52233136      -0.61782662
C       -0.43308864      -0.17624996      -0.18734684
C       -1.48401829      -0.93745151      -0.97451795
O       -0.73177582      -0.09661326       1.81089190
C       -0.70690841       1.19305173       0.00237394
C       -0.93133037       1.73501647       1.11931968
H        3.07308778      -0.06665086      -0.30117246
H        2.05912781       0.17621641       1.12396748
H        2.01768500       1.34162568      -0.19655714
H        1.11419477      -1.59055816      -0.41593209
H        1.05235229      -0.40540375      -1.70470716
H       -2.49507664      -0.65793425      -0.67888528
H       -1.39956111      -0.73619929      -2.04486304
H       -1.34430211      -2.00935224      -0.81883154
H       -1.57338750      -0.15902613       2.26549302
H       -1.29747900       2.63276827       1.57942895
17
Frame=15 idx=010460 GeodesicLength=1.3752868024908065 rxn_smarts="[C:1]([C:2]([C@@:3]([C:4]([H:13])([H:14])[H:15])([O:5][H:16])[C:6]#[C:7][H:17])([H:11])[H:12])([H:8])([H:9])[H:10]>>[C:1]([C:2]([C:3]([C:4]([H:13])([H:14])[H:15])=[C:6]=[C:7]([O:5][H:16])[H:17])([H:11])[H:12])([H:8])([H:9])[H:10]"
C        2.09527528       0.27466382       0.03801659
C        0.98664808      -0.52394333      -0.62593983
C       -0.43242332      -0.19588394      -0.18208581
C       -1.48047930      -0.94252494      -0.98857745
O       -0.74322686      -0.10335341       1.84595619
C       -0.71021925       1.16462656       0.03275398
C       -0.93636978       1.74594255       1.12732651
H        3.07372456      -0.06058348      -0.30991509
H        2.06266986       0.15713818       1.12141384
H        2.01128862       1.34000995      -0.18269143
H        1.12316010      -1.59398274      -0.43880286
H        1.05083664      -0.39189417      -1.71127853
H       -2.49285604      -0.67038921      -0.69081989
H       -1.39427450      -0.72455092      -2.05556557
H       -1.33986444      -2.01643589      -0.84867033
H       -1.57112314      -0.12428202       2.32776826
H       -1.30276652       2.66544298       1.54111141
17
Frame=16 idx=010460 GeodesicLength=1.4660316253988794 rxn_smarts="[C:1]([C:2]([C@@:3]([C:4]([H:13])([H:14])[H:15])([O:5][H:16])[C:6]#[C:7][H:17])([H:11])[H:12])([H:8])([H:9])[H:10]>>[C:1]([C:2]([C:3]([C:4]([H:13])([H:14])[H:15])=[C:6]=[C:7]([O:5][H:16])[H:17])([H:11])[H:12])([H:8])([H:9])[H:10]"
C        2.09435377       0.27012302       0.03760397
C        0.98818401      -0.52528545      -0.63421825
C       -0.43194285      -0.21657313      -0.17689552
C       -1.47697813      -0.94758747      -1.00316669
O       -0.75548564      -0.11057385       1.88212994
C       -0.71405904       1.13443632       0.06438442
C       -0.94234215       1.75626214       1.13401073
H        3.07385387      -0.05383065      -0.31798149
H        2.06558101       0.13691658       1.11926144
H        2.00397049       1.33822524      -0.16698876
H        1.13225706      -1.59702231      -0.46299402
H        1.04893993      -0.37689463      -1.71763553
H       -2.49064698      -0.68347652      -0.70283582
H       -1.38931493      -0.71162087      -2.06626480
H       -1.33514401      -2.02336964      -0.88025060
H       -1.56504562      -0.08682470       2.39313793
H       -1.30618080       2.69709592       1.49870306
