13
Frame=0 idx=004825 GeodesicLength=0.0 rxn_smarts="[C:1]([C@@:2]1([H:10])[N:3]([H:11])[C:4]([H:12])([H:13])[C:5]1=[O:6])([H:7])([H:8])[H:9]>>[C-:5]#[O+:6].[C:1]([C+:2]([N:3]([C-:4]([H:12])[H:13])[H:11])[H:10])([H:7])([H:8])[H:9]"
C       -1.52963958      -0.12251436      -0.43626461
C       -0.49147470      -0.22608322       0.64232708
N        0.72523965      -0.78433837       0.34962637
C        1.46192473      -0.22889611      -0.64068116
C        0.51651842       1.52228791       0.44399534
O        0.85785087       2.27087941       1.24691500
H       -1.86914148      -1.11162898      -0.76192356
H       -1.15891446       0.41737953      -1.30787481
H       -2.39546199       0.42039954      -0.05642975
H       -0.86771056      -0.52515116       1.61810880
H        1.25102026      -1.09530822       1.15132453
H        0.98390207      -0.06219696      -1.59278102
H        2.51588681      -0.47482907      -0.65634220
13
Frame=1 idx=004825 GeodesicLength=0.03594500875854994 rxn_smarts="[C:1]([C@@:2]1([H:10])[N:3]([H:11])[C:4]([H:12])([H:13])[C:5]1=[O:6])([H:7])([H:8])[H:9]>>[C-:5]#[O+:6].[C:1]([C+:2]([N:3]([C-:4]([H:12])[H:13])[H:11])[H:10])([H:7])([H:8])[H:9]"
C       -1.53634433      -0.12417255      -0.43327460
C       -0.49177567      -0.22353763       0.63907961
N        0.71928544      -0.79535853       0.34161182
C        1.46453512      -0.22091532      -0.63508793
C        0.52515159       1.52106013       0.44017170
O        0.86769698       2.27771712       1.23536122
H       -1.87010463      -1.11453117      -0.76118537
H       -1.17297533       0.41939351      -1.30598941
H       -2.40441800       0.41199756      -0.04905560
H       -0.86307805      -0.51120017       1.62031500
H        1.23952155      -1.12397856       1.13999115
H        1.00062484      -0.06287193      -1.59603750
H        2.52188050      -0.45360246      -0.63590008
13
Frame=2 idx=004825 GeodesicLength=0.0718699145355903 rxn_smarts="[C:1]([C@@:2]1([H:10])[N:3]([H:11])[C:4]([H:12])([H:13])[C:5]1=[O:6])([H:7])([H:8])[H:9]>>[C-:5]#[O+:6].[C:1]([C+:2]([N:3]([C-:4]([H:12])[H:13])[H:11])[H:10])([H:7])([H:8])[H:9]"
C       -1.54309004      -0.12583044      -0.43015420
C       -0.49197088      -0.22099377       0.63573532
N        0.71331968      -0.80612479       0.33328282
C        1.46723757      -0.21303085      -0.62932727
C        0.53358791       1.51999574       0.43629248
O        0.87726554       2.28486636       1.22347843
H       -1.87114713      -1.11734298      -0.76042711
H       -1.18728554       0.42151294      -1.30391039
H       -2.41330546       0.40345371      -0.04130222
H       -0.85800326      -0.49760782       1.62225913
H        1.22782020      -1.15240743       1.12800412
H        1.01814983      -0.06327359      -1.59903632
H        2.52742161      -0.43321708      -0.61489481
13
Frame=3 idx=004825 GeodesicLength=0.10776074753931614 rxn_smarts="[C:1]([C@@:2]1([H:10])[N:3]([H:11])[C:4]([H:12])([H:13])[C:5]1=[O:6])([H:7])([H:8])[H:9]>>[C-:5]#[O+:6].[C:1]([C+:2]([N:3]([C-:4]([H:12])[H:13])[H:11])[H:10])([H:7])([H:8])[H:9]"
C       -1.54987824      -0.12748020      -0.42690172
C       -0.49206325      -0.21845371       0.63229670
N        0.70735793      -0.81663643       0.32464865
C        1.47004259      -0.20523938      -0.62340205
C        0.54182670       1.51910034       0.43235681
O        0.88650683       2.29233429       1.21127806
H       -1.87226369      -1.12005397      -0.75966369
H       -1.20185217       0.42375405      -1.30163215
H       -2.42212673       0.39477664      -0.03316568
H       -0.85250610      -0.48439384       1.62394780
H        1.21594304      -1.18054290       1.11539252
H        1.03648346      -0.06342687      -1.60176888
H        2.53252962      -0.41373800      -0.59338637
13
Frame=4 idx=004825 GeodesicLength=0.14358670482437752 rxn_smarts="[C:1]([C@@:2]1([H:10])[N:3]([H:11])[C:4]([H:12])([H:13])[C:5]1=[O:6])([H:7])([H:8])[H:9]>>[C-:5]#[O+:6].[C:1]([C+:2]([N:3]([C-:4]([H:12])[H:13])[H:11])[H:10])([H:7])([H:8])[H:9]"
C       -1.55670722      -0.12912134      -0.42351521
C       -0.49205632      -0.21592640       0.62876009
N        0.70140335      -0.82689316       0.31571196
C        1.47294461      -0.19754068      -0.61730965
C        0.54987372       1.51836978       0.42836141
O        0.89540449       2.30011113       1.19875943
H       -1.87346552      -1.12265802      -0.75889706
H       -1.21667267       0.42611253      -1.29914708
H       -2.43086155       0.38598454      -0.02464983
H       -0.84660381      -0.47158126       1.62537684
H        1.20390526      -1.20832700       1.10216774
H        1.05562323      -0.06335439      -1.60421286
H        2.53721241      -0.39517573      -0.57140576
13
Frame=5 idx=004825 GeodesicLength=0.17932051615553873 rxn_smarts="[C:1]([C@@:2]1([H:10])[N:3]([H:11])[C:4]([H:12])([H:13])[C:5]1=[O:6])([H:7])([H:8])[H:9]>>[C-:5]#[O+:6].[C:1]([C+:2]([N:3]([C-:4]([H:12])[H:13])[H:11])[H:10])([H:7])([H:8])[H:9]"
C       -1.56357672      -0.13075202      -0.41999523
C       -0.49195410      -0.21341992       0.62512305
N        0.69546291      -0.83689725       0.30647603
C        1.47593786      -0.18993608      -0.61105163
C        0.55773276       1.51779922       0.42430377
O        0.90394150       2.30817970       1.18592887
H       -1.87476382      -1.12514983      -0.75812884
H       -1.23174503       0.42858152      -1.29645478
H       -2.43949504       0.37710293      -0.01576246
H       -0.84031489      -0.45918725       1.62654770
H        1.19173148      -1.23570526       1.08834798
H        1.07556224      -0.06308306      -1.60634677
H        2.54148083      -0.37753270      -0.54898769
13
Frame=6 idx=004825 GeodesicLength=0.2149339067359039 rxn_smarts="[C:1]([C@@:2]1([H:10])[N:3]([H:11])[C:4]([H:12])([H:13])[C:5]1=[O:6])([H:7])([H:8])[H:9]>>[C-:5]#[O+:6].[C:1]([C+:2]([N:3]([C-:4]([H:12])[H:13])[H:11])[H:10])([H:7])([H:8])[H:9]"
C       -1.57048535      -0.13237124      -0.41634232
C       -0.49176262      -0.21094195       0.62138226
N        0.68954334      -0.84664951       0.29694502
C        1.47901330      -0.18242810      -0.60463537
C        0.56540859       1.51738452       0.42018515
O        0.91210288       2.31651999       1.17280403
H       -1.87617117      -1.12752425      -0.75735700
H       -1.24706315       0.43115184      -1.29355263
H       -2.44800991       0.36815653      -0.00651565
H       -0.83366417      -0.44722667       1.62745740
H        1.17945134      -1.26261674       1.07395915
H        1.09629198      -0.06264595      -1.60815865
H        2.54534494      -0.36080846      -0.52617140
13
Frame=7 idx=004825 GeodesicLength=0.2504041515536975 rxn_smarts="[C:1]([C@@:2]1([H:10])[N:3]([H:11])[C:4]([H:12])([H:13])[C:5]1=[O:6])([H:7])([H:8])[H:9]>>[C-:5]#[O+:6].[C:1]([C+:2]([N:3]([C-:4]([H:12])[H:13])[H:11])[H:10])([H:7])([H:8])[H:9]"
C       -1.57743605      -0.13397771      -0.41256362
C       -0.49148606      -0.20850073       0.61753782
N        0.68365511      -0.85615729       0.28712309
C        1.48215962      -0.17501866      -0.59806302
C        0.57290466       1.51711944       0.41600167
O        0.91988682       2.32510364       1.15939223
H       -1.87769736      -1.12978311      -0.75659101
H       -1.26262843       0.43381395      -1.29045408
H       -2.45640110       0.35917916       0.00307635
H       -0.82666712      -0.43571291       1.62812056
H        1.16710596      -1.28900697       1.05902500
H        1.11779411      -0.06206184      -1.60961588
H        2.54880985      -0.34499697      -0.50298911
13
Frame=8 idx=004825 GeodesicLength=0.28574176276718893 rxn_smarts="[C:1]([C@@:2]1([H:10])[N:3]([H:11])[C:4]([H:12])([H:13])[C:5]1=[O:6])([H:7])([H:8])[H:9]>>[C-:5]#[O+:6].[C:1]([C+:2]([N:3]([C-:4]([H:12])[H:13])[H:11])[H:10])([H:7])([H:8])[H:9]"
C       -1.58442158      -0.13558177      -0.40865440
C       -0.49112982      -0.20609524       0.61357397
N        0.67779547      -0.86540570       0.27703749
C        1.48538995      -0.16771761      -0.59135089
C        0.58025751       1.51699733       0.41175246
O        0.92732738       2.33390683       1.14572150
H       -1.87933926      -1.13191380      -0.75582925
H       -1.27843982       0.43657867      -1.28712003
H       -2.46465035       0.35012301       0.01299845
H       -0.81936918      -0.42460864       1.62848214
H        1.15464257      -1.31490350       1.04363816
H        1.14005557      -0.06140170      -1.61070879
H        2.55188157      -0.32997787      -0.47954080
13
Frame=9 idx=004825 GeodesicLength=0.32090542675157224 rxn_smarts="[C:1]([C@@:2]1([H:10])[N:3]([H:11])[C:4]([H:12])([H:13])[C:5]1=[O:6])([H:7])([H:8])[H:9]>>[C-:5]#[O+:6].[C:1]([C+:2]([N:3]([C-:4]([H:12])[H:13])[H:11])[H:10])([H:7])([H:8])[H:9]"
C       -1.59143919      -0.13716585      -0.40459948
C       -0.49069883      -0.20372771       0.60949377
N        0.67194969      -0.87442357       0.26662936
C        1.48867387      -0.16052773      -0.58448930
C        0.58742481       1.51700697       0.40741360
O        0.93435881       2.34292325       1.13170604
H       -1.88110023      -1.13392323      -0.75505208
H       -1.29449582       0.43943851      -1.28354538
H       -2.47273875       0.34105426       0.02328347
H       -0.81174150      -0.41394345       1.62859497
H        1.14210880      -1.34026932       1.02767203
H        1.16311427      -0.06061971      -1.61143241
H        2.55458406      -0.31582242      -0.45567458
13
Frame=10 idx=004825 GeodesicLength=0.35598858524547744 rxn_smarts="[C:1]([C@@:2]1([H:10])[N:3]([H:11])[C:4]([H:12])([H:13])[C:5]1=[O:6])([H:7])([H:8])[H:9]>>[C-:5]#[O+:6].[C:1]([C+:2]([N:3]([C-:4]([H:12])[H:13])[H:11])[H:10])([H:7])([H:8])[H:9]"
C       -1.59852346      -0.13874640      -0.40041379
C       -0.49020371      -0.20140229       0.60529972
N        0.66612014      -0.88320687       0.25591351
C        1.49203726      -0.15344329      -0.57749148
C        0.59445962       1.51715745       0.40298728
O        0.94108127       2.35216964       1.11735756
H       -1.88302494      -1.13582090      -0.75428899
H       -1.31083301       0.44239698      -1.27975027
H       -2.48071510       0.33192302       0.03392192
H       -0.80381382      -0.40370561       1.62847303
H        1.12949288      -1.36514148       1.01119051
H        1.18698052      -0.05974814      -1.61176911
H        2.55694236      -0.30243210      -0.43142990
13
Frame=11 idx=004825 GeodesicLength=0.3908585808931119 rxn_smarts="[C:1]([C@@:2]1([H:10])[N:3]([H:11])[C:4]([H:12])([H:13])[C:5]1=[O:6])([H:7])([H:8])[H:9]>>[C-:5]#[O+:6].[C:1]([C+:2]([N:3]([C-:4]([H:12])[H:13])[H:11])[H:10])([H:7])([H:8])[H:9]"
C       -1.60564133      -0.14031280      -0.39609570
C       -0.48963075      -0.19911030       0.60096501
N        0.66033409      -0.89173876       0.24488381
C        1.49544496      -0.14648236      -0.57034153
C        0.60133660       1.51742804       0.39847656
O        0.94748579       2.36162489       1.10265986
H       -1.88504357      -1.13756949      -0.75354292
H       -1.32743838       0.44545806      -1.27570079
H       -2.48855183       0.32272866       0.04490455
H       -0.79558193      -0.39387203       1.62805300
H        1.11682249      -1.38952099       0.99416843
H        1.21159995      -0.05886843      -1.61158730
H        2.55886391      -0.28976450      -0.40684299
13
Frame=12 idx=004825 GeodesicLength=0.42565385929842736 rxn_smarts="[C:1]([C@@:2]1([H:10])[N:3]([H:11])[C:4]([H:12])([H:13])[C:5]1=[O:6])([H:7])([H:8])[H:9]>>[C-:5]#[O+:6].[C:1]([C+:2]([N:3]([C-:4]([H:12])[H:13])[H:11])[H:10])([H:7])([H:8])[H:9]"
C       -1.61282514      -0.14187123      -0.39162358
C       -0.48899921      -0.19685733       0.59650439
N        0.65454442      -0.90004476       0.23349812
C        1.49893704      -0.13963457      -0.56305174
C        0.60808305       1.51782884       0.39384359
O        0.95355504       2.37130064       1.08753104
H       -1.88723671      -1.13920562      -0.75278927
H       -1.34433733       0.44862168      -1.27138588
H       -2.49625191       0.31346826       0.05627852
H       -0.78704573      -0.38444546       1.62740338
H        1.10403339      -1.41345639       0.97655180
H        1.23708580      -0.05789426      -1.61098005
H        2.56045730      -0.27780982      -0.38178032
13
Frame=13 idx=004825 GeodesicLength=0.4603516901672832 rxn_smarts="[C:1]([C@@:2]1([H:10])[N:3]([H:11])[C:4]([H:12])([H:13])[C:5]1=[O:6])([H:7])([H:8])[H:9]>>[C-:5]#[O+:6].[C:1]([C+:2]([N:3]([C-:4]([H:12])[H:13])[H:11])[H:10])([H:7])([H:8])[H:9]"
C       -1.62007397      -0.14341563      -0.38699336
C       -0.48830269      -0.19463783       0.59189715
N        0.64876190      -0.90811597       0.22173152
C        1.50251058      -0.13290304      -0.55560874
C        0.61469261       1.51834918       0.38908266
O        0.95930763       2.38122144       1.07193571
H       -1.88958242      -1.14069682      -0.75204130
H       -1.36155310       0.45190648      -1.26677852
H       -2.50382626       0.30410830       0.06806213
H       -0.77819335      -0.37540951       1.62648750
H        1.09113399      -1.43699029       0.95830497
H        1.26345215      -0.05690383      -1.60984987
H        2.56167294      -0.26651248      -0.35622987
13
Frame=14 idx=004825 GeodesicLength=0.4950018256033805 rxn_smarts="[C:1]([C@@:2]1([H:10])[N:3]([H:11])[C:4]([H:12])([H:13])[C:5]1=[O:6])([H:7])([H:8])[H:9]>>[C-:5]#[O+:6].[C:1]([C+:2]([N:3]([C-:4]([H:12])[H:13])[H:11])[H:10])([H:7])([H:8])[H:9]"
C       -1.62739882      -0.14494622      -0.38218896
C       -0.48754086      -0.19245220       0.58714231
N        0.64297358      -0.91595757       0.20954804
C        1.50618492      -0.12629338      -0.54799739
C        0.62118232       1.51899112       0.38417090
O        0.96474106       2.39143415       1.05576097
H       -1.89209833      -1.14204541      -0.75130612
H       -1.37911681       0.45534391      -1.26184399
H       -2.51128096       0.29460665       0.08030061
H       -0.76900689      -0.36675992       1.62532230
H        1.07807855      -1.46019834       0.93934515
H        1.29077067      -0.05586737      -1.60816561
H        2.56251158      -0.25585541      -0.33008820
13
Frame=15 idx=004825 GeodesicLength=0.5295687710929631 rxn_smarts="[C:1]([C@@:2]1([H:10])[N:3]([H:11])[C:4]([H:12])([H:13])[C:5]1=[O:6])([H:7])([H:8])[H:9]>>[C-:5]#[O+:6].[C:1]([C+:2]([N:3]([C-:4]([H:12])[H:13])[H:11])[H:10])([H:7])([H:8])[H:9]"
C       -1.63479148      -0.14646655      -0.37721498
C       -0.48671796      -0.19029759       0.58223346
N        0.63718801      -0.92355418       0.19695211
C        1.50994399      -0.11980012      -0.54022537
C        0.62754874       1.51975388       0.37911359
O        0.96988895       2.40188943       1.03903190
H       -1.89477383      -1.14325257      -0.75057792
H       -1.39701980       0.45890831      -1.25658493
H       -2.51859780       0.28498120       0.09296291
H       -0.75950397      -0.35850206       1.62389216
H        1.06488947      -1.48303041       0.91970028
H        1.31900050      -0.05482158      -1.60587801
H        2.56294518      -0.24580774      -0.30340522
13
Frame=16 idx=004825 GeodesicLength=0.5640923863689729 rxn_smarts="[C:1]([C@@:2]1([H:10])[N:3]([H:11])[C:4]([H:12])([H:13])[C:5]1=[O:6])([H:7])([H:8])[H:9]>>[C-:5]#[O+:6].[C:1]([C+:2]([N:3]([C-:4]([H:12])[H:13])[H:11])[H:10])([H:7])([H:8])[H:9]"
C       -1.64226256      -0.14797682      -0.37205030
C       -0.48583321      -0.18817540       0.57716160
N        0.63139220      -0.93090462       0.18389345
C        1.51380895      -0.11342420      -0.53227291
C        0.63379966       1.52063181       0.37388923
O        0.97474070       2.41263688       1.02162755
H       -1.89762914      -1.14430993      -0.74985153
H       -1.41529001       0.46262167      -1.25095852
H       -2.52577595       0.27520125       0.10610174
H       -0.74966453      -0.35064234       1.62219440
H        1.05152700      -1.50555061       0.89926926
H        1.34823040      -0.05375245      -1.60292935
H        2.56295649      -0.23635525      -0.27607461
