13
Frame=0 idx=000454 GeodesicLength=0.0 rxn_smarts="[O:1]([C@@:2]1([H:8])[C:3]([H:9])([H:10])[C@@:4]2([H:11])[N:5]([H:12])[C@@:6]12[H:13])[H:7]>>[O:1]1[C@@:2]2([H:8])[C:3]([H:9])([H:10])[C@:4]([N:5]([H:7])[H:12])([H:11])[C@@:6]12[H:13]"
O        1.67640434       0.88195138       0.27672820
C        1.05622398       0.18992235      -0.68387203
C        0.35954069      -1.17311176      -0.24360424
C       -0.91255524      -0.37030618       0.06232094
N       -0.71291827       0.34825549       1.32534033
C       -0.33398615       0.76950540      -0.66521965
H        0.27534845       0.63910488       1.42883684
H        1.55260633       0.13314650      -1.66779659
H        0.81531466      -1.69687038       0.59400504
H        0.20998525      -1.83923648      -1.09375249
H       -1.91826509      -0.76305777      -0.05579185
H       -1.37370731       1.09222586       1.50123384
H       -0.69399166       1.78847065      -0.77842831
13
Frame=1 idx=000454 GeodesicLength=0.0924150888955576 rxn_smarts="[O:1]([C@@:2]1([H:8])[C:3]([H:9])([H:10])[C@@:4]2([H:11])[N:5]([H:12])[C@@:6]12[H:13])[H:7]>>[O:1]1[C@@:2]2([H:8])[C:3]([H:9])([H:10])[C@:4]([N:5]([H:7])[H:12])([H:11])[C@@:6]12[H:13]"
O        1.65861809       0.88792308       0.27845034
C        1.05505384       0.18175101      -0.68805458
C        0.35819300      -1.17623668      -0.24487011
C       -0.91138262      -0.37058506       0.06476836
N       -0.71107219       0.35039895       1.32531911
C       -0.32765060       0.77474237      -0.65395514
H        0.29606926       0.64628524       1.43348018
H        1.55400006       0.13461625      -1.66947394
H        0.81655210      -1.69751819       0.59306618
H        0.20600566      -1.84552174      -1.09193598
H       -1.91799044      -0.75677883      -0.06394096
H       -1.38514885       1.08159904       1.50466126
H       -0.69124729       1.78932457      -0.78751472
13
Frame=2 idx=000454 GeodesicLength=0.18482930641981257 rxn_smarts="[O:1]([C@@:2]1([H:8])[C:3]([H:9])([H:10])[C@@:4]2([H:11])[N:5]([H:12])[C@@:6]12[H:13])[H:7]>>[O:1]1[C@@:2]2([H:8])[C:3]([H:9])([H:10])[C@:4]([N:5]([H:7])[H:12])([H:11])[C@@:6]12[H:13]"
O        1.64140130       0.89344319       0.27996395
C        1.05367607       0.17389252      -0.69212880
C        0.35682650      -1.17919948      -0.24607432
C       -0.91029134      -0.37080845       0.06720454
N       -0.70955806       0.35259145       1.32532478
C       -0.32138283       0.78002594      -0.64258732
H        0.31720182       0.65341563       1.43823435
H        1.55511695       0.13620974      -1.67100727
H        0.81774207      -1.69800928       0.59218634
H        0.20211004      -1.85167878      -1.09001988
H       -1.91763066      -0.75043652      -0.07230069
H       -1.39669215       1.07077026       1.50806064
H       -0.68851970       1.78978379      -0.79685632
13
Frame=3 idx=000454 GeodesicLength=0.27724069040388916 rxn_smarts="[O:1]([C@@:2]1([H:8])[C:3]([H:9])([H:10])[C@@:4]2([H:11])[N:5]([H:12])[C@@:6]12[H:13])[H:7]>>[O:1]1[C@@:2]2([H:8])[C:3]([H:9])([H:10])[C@:4]([N:5]([H:7])[H:12])([H:11])[C@@:6]12[H:13]"
O        1.62473963       0.89854472       0.28129013
C        1.05208215       0.16633949      -0.69610974
C        0.35543735      -1.18200219      -0.24721751
C       -0.90928623      -0.37097565       0.06962510
N       -0.70838503       0.35482862       1.32535511
C       -0.31518857       0.78535897      -0.63111522
H        0.33877977       0.66049031       1.44309524
H        1.55596230       0.13791968      -1.67240641
H        0.81888536      -1.69833892       0.59136662
H        0.19829369      -1.85771366      -1.08800153
H       -1.91718519      -0.74402892      -0.08087223
H       -1.40834480       1.05974154       1.51142243
H       -0.68579041       1.78983600      -0.80643200
13
Frame=4 idx=000454 GeodesicLength=0.3696517697781507 rxn_smarts="[O:1]([C@@:2]1([H:8])[C:3]([H:9])([H:10])[C@@:4]2([H:11])[N:5]([H:12])[C@@:6]12[H:13])[H:7]>>[O:1]1[C@@:2]2([H:8])[C:3]([H:9])([H:10])[C@:4]([N:5]([H:7])[H:12])([H:11])[C@@:6]12[H:13]"
O        1.60861724       0.90325941       0.28244838
C        1.05026353       0.15908475      -0.70001170
C        0.35402157      -1.18464691      -0.24830004
C       -0.90837270      -0.37108606       0.07202436
N       -0.70756333       0.35710600       1.32540703
C       -0.30907323       0.79074406      -0.61953814
H        0.36083968       0.66750485       1.44805761
H        1.55654066       0.13973922      -1.67367978
H        0.81998198      -1.69850214       0.59060877
H        0.19455259      -1.86363267      -1.08587785
H       -1.91665163      -0.73755366      -0.08965657
H       -1.42011477       1.04851400       1.51473564
H       -0.68304159       1.78946915      -0.81621772
13
Frame=5 idx=000454 GeodesicLength=0.46205613758274994 rxn_smarts="[O:1]([C@@:2]1([H:8])[C:3]([H:9])([H:10])[C@@:4]2([H:11])[N:5]([H:12])[C@@:6]12[H:13])[H:7]>>[O:1]1[C@@:2]2([H:8])[C:3]([H:9])([H:10])[C@:4]([N:5]([H:7])[H:12])([H:11])[C@@:6]12[H:13]"
O        1.59301913       0.90761709       0.28345334
C        1.04821271       0.15212181      -0.70384741
C        0.35257643      -1.18713541      -0.24932122
C       -0.90755539      -0.37113897       0.07439555
N       -0.70710561       0.35941779       1.32547736
C       -0.30304011       0.79618429      -0.60785359
H        0.38341743       0.67445303       1.45311650
H        1.55685348       0.14166274      -1.67483716
H        0.82103261      -1.69849326       0.58991612
H        0.19088484      -1.86944237      -1.08364427
H       -1.91603019      -0.73100926      -0.09865815
H       -1.43200938       1.03709233       1.51798911
H       -0.68025595       1.78867017      -0.82618620
13
Frame=6 idx=000454 GeodesicLength=0.5544702010721326 rxn_smarts="[O:1]([C@@:2]1([H:8])[C:3]([H:9])([H:10])[C@@:4]2([H:11])[N:5]([H:12])[C@@:6]12[H:13])[H:7]>>[O:1]1[C@@:2]2([H:8])[C:3]([H:9])([H:10])[C@:4]([N:5]([H:7])[H:12])([H:11])[C@@:6]12[H:13]"
O        1.57792549       0.91164883       0.28432316
C        1.04592042       0.14544322      -0.70762946
C        0.35109802      -1.18947046      -0.25028024
C       -0.90684052      -0.37113463       0.07673164
N       -0.70702506       0.36176005       1.32556059
C       -0.29709437       0.80168000      -0.59606394
H        0.40655813       0.68133247       1.45826192
H        1.55690497       0.14368372      -1.67588661
H        0.82203630      -1.69830702       0.58929252
H        0.18728836      -1.87515043      -1.08129597
H       -1.91531767      -0.72439419      -0.10787989
H       -1.44403776       1.02547716       1.52116966
H       -0.67741633       1.78743128      -0.83630339
13
Frame=7 idx=000454 GeodesicLength=0.64687810058495 rxn_smarts="[O:1]([C@@:2]1([H:8])[C:3]([H:9])([H:10])[C@@:4]2([H:11])[N:5]([H:12])[C@@:6]12[H:13])[H:7]>>[O:1]1[C@@:2]2([H:8])[C:3]([H:9])([H:10])[C@:4]([N:5]([H:7])[H:12])([H:11])[C@@:6]12[H:13]"
O        1.56332084       0.91538212       0.28506302
C        1.04338016       0.13904209      -0.71136872
C        0.34958501      -1.19165439      -0.25117420
C       -0.90623279      -0.37107351       0.07902428
N       -0.70733744       0.36412740       1.32565133
C       -0.29123895       0.80723217      -0.58416916
H        0.43030153       0.68813637       1.46348600
H        1.55669407       0.14579436      -1.67683821
H        0.82299406      -1.69793638       0.58874496
H        0.18376483      -1.88076534      -1.07882507
H       -1.91451412      -0.71770900      -0.11732880
H       -1.45621128       1.01367280       1.52426105
H       -0.67450592       1.78575130      -0.84652648
13
Frame=8 idx=000454 GeodesicLength=0.7392965585193596 rxn_smarts="[O:1]([C@@:2]1([H:8])[C:3]([H:9])([H:10])[C@@:4]2([H:11])[N:5]([H:12])[C@@:6]12[H:13])[H:7]>>[O:1]1[C@@:2]2([H:8])[C:3]([H:9])([H:10])[C@:4]([N:5]([H:7])[H:12])([H:11])[C@@:6]12[H:13]"
O        1.54918575       0.91884403       0.28568896
C        1.04058285       0.13291224      -0.71507677
C        0.34803436      -1.19369023      -0.25200125
C       -0.90573834      -0.37095632       0.08126472
N       -0.70805894       0.36651456       1.32574284
C       -0.28547703       0.81283998      -0.57216853
H        0.45469904       0.69486287       1.46877551
H        1.55622136       0.14799076      -1.67769992
H        0.82390531      -1.69737544       0.58827889
H        0.18031413      -1.88629594      -1.07622494
H       -1.91361680      -0.71095208      -0.12701089
H       -1.46854135       1.00168384       1.52724589
H       -0.67151033       1.78362173      -0.85681452
13
Frame=9 idx=000454 GeodesicLength=0.8316667159029256 rxn_smarts="[O:1]([C@@:2]1([H:8])[C:3]([H:9])([H:10])[C@@:4]2([H:11])[N:5]([H:12])[C@@:6]12[H:13])[H:7]>>[O:1]1[C@@:2]2([H:8])[C:3]([H:9])([H:10])[C@:4]([N:5]([H:7])[H:12])([H:11])[C@@:6]12[H:13]"
O        1.53550495       0.92206026       0.28620058
C        1.03752122       0.12704756      -0.71876288
C        0.34644624      -1.19557879      -0.25275908
C       -0.90536011      -0.37078106       0.08344303
N       -0.70920427       0.36891625       1.32583112
C       -0.27980536       0.81850749      -0.56006019
H        0.47978355       0.70150475       1.47413082
H        1.55548082       0.15026672      -1.67848350
H        0.82477190      -1.69661557       0.58790057
H        0.17693955      -1.89174887      -1.07348814
H       -1.91262886      -0.70412222      -0.13693795
H       -1.48103628       0.98951897       1.53010769
H       -0.66841336       1.78102450      -0.86712206
13
Frame=10 idx=000454 GeodesicLength=0.9240535246531274 rxn_smarts="[O:1]([C@@:2]1([H:8])[C:3]([H:9])([H:10])[C@@:4]2([H:11])[N:5]([H:12])[C@@:6]12[H:13])[H:7]>>[O:1]1[C@@:2]2([H:8])[C:3]([H:9])([H:10])[C@:4]([N:5]([H:7])[H:12])([H:11])[C@@:6]12[H:13]"
O        1.52225363       0.92505407       0.28661614
C        1.03418755       0.12143977      -0.72243630
C        0.34481774      -1.19732676      -0.25344327
C       -0.90510672      -0.37055449       0.08555019
N       -0.71079575       0.37132874       1.32590269
C       -0.27423490       0.82422513      -0.54785214
H        0.50563094       0.70806480       1.47951809
H        1.55447808       0.15261504      -1.67919332
H        0.82559154      -1.69565277       0.58762005
H        0.17364478      -1.89713789      -1.07060440
H       -1.91154473      -0.69722645      -0.14711360
H       -1.49371653       0.97718225       1.53282099
H       -0.66520561       1.77798857      -0.87738513
13
Frame=11 idx=000454 GeodesicLength=1.0164415041895163 rxn_smarts="[O:1]([C@@:2]1([H:8])[C:3]([H:9])([H:10])[C@@:4]2([H:11])[N:5]([H:12])[C@@:6]12[H:13])[H:7]>>[O:1]1[C@@:2]2([H:8])[C:3]([H:9])([H:10])[C@:4]([N:5]([H:7])[H:12])([H:11])[C@@:6]12[H:13]"
O        1.50941219       0.92784867       0.28694055
C        1.03057532       0.11608101      -0.72610389
C        0.34314836      -1.19893785      -0.25404945
C       -0.90498381      -0.37027916       0.08757542
N       -0.71285337       0.37374748       1.32594832
C       -0.26876796       0.82999049      -0.53554824
H        0.53229760       0.71454157       1.48491774
H        1.55321260       0.15502764      -1.67983672
H        0.82636342      -1.69448002       0.58744707
H        0.17043560      -1.90247323      -1.06756393
H       -1.91036671      -0.69026989      -0.15754767
H       -1.50659609       0.96467979       1.53536334
H       -0.66187717       1.77452350      -0.88754255
13
Frame=12 idx=000454 GeodesicLength=1.1088433816320884 rxn_smarts="[O:1]([C@@:2]1([H:8])[C:3]([H:9])([H:10])[C@@:4]2([H:11])[N:5]([H:12])[C@@:6]12[H:13])[H:7]>>[O:1]1[C@@:2]2([H:8])[C:3]([H:9])([H:10])[C@:4]([N:5]([H:7])[H:12])([H:11])[C@@:6]12[H:13]"
O        1.49695770       0.93046430       0.28718347
C        1.02667752       0.11096331      -0.72977253
C        0.34143735      -1.20041724      -0.25457225
C       -0.90499858      -0.36996000       0.08950755
N       -0.71540028       0.37616866       1.32595580
C       -0.26340935       0.83579687      -0.52315362
H        0.55985497       0.72093358       1.49030202
H        1.55168408       0.15749745      -1.68042019
H        0.82708619      -1.69309121       0.58739335
H        0.16731881      -1.90776753      -1.06435490
H       -1.90909150      -0.68325862      -0.16825031
H       -1.51969463       0.95201970       1.53770853
H       -0.65842229       1.77065071      -0.89752692
13
Frame=13 idx=000454 GeodesicLength=1.2012361130438742 rxn_smarts="[O:1]([C@@:2]1([H:8])[C:3]([H:9])([H:10])[C@@:4]2([H:11])[N:5]([H:12])[C@@:6]12[H:13])[H:7]>>[O:1]1[C@@:2]2([H:8])[C:3]([H:9])([H:10])[C@:4]([N:5]([H:7])[H:12])([H:11])[C@@:6]12[H:13]"
O        1.48487076       0.93292069       0.28734873
C        1.02248785       0.10607845      -0.73344845
C        0.33968555      -1.20176933      -0.25500554
C       -0.90515641      -0.36960109       0.09133609
N       -0.71845885       0.37858815       1.32591413
C       -0.25816131       0.84163947      -0.51067115
H        0.58836991       0.72723709       1.49564429
H        1.54988943       0.16001638      -1.68095062
H        0.82775986      -1.69147923       0.58747134
H        0.16430242      -1.91303277      -1.06096439
H       -1.90772083      -0.67620004      -0.17923346
H       -1.53303306       0.93921008       1.53982683
H       -0.65483533       1.76639213      -0.90726779
13
Frame=14 idx=000454 GeodesicLength=1.293636025835723 rxn_smarts="[O:1]([C@@:2]1([H:8])[C:3]([H:9])([H:10])[C@@:4]2([H:11])[N:5]([H:12])[C@@:6]12[H:13])[H:7]>>[O:1]1[C@@:2]2([H:8])[C:3]([H:9])([H:10])[C@:4]([N:5]([H:7])[H:12])([H:11])[C@@:6]12[H:13]"
O        1.47312826       0.93523402       0.28744829
C        1.01800062       0.10141787      -0.73713543
C        0.33789253      -1.20300056      -0.25534241
C       -0.90546467      -0.36920882       0.09305067
N       -0.72205452       0.38100237       1.32581033
C       -0.25302841       0.84750899      -0.49810409
H        0.61792965       0.73345356       1.50090433
H        1.54782845       0.16257821      -1.68143257
H        0.82838190      -1.68963890       0.58769441
H        0.16139452      -1.91828223      -1.05737942
H       -1.90625207      -0.66910168      -0.19050780
H       -1.54663992       0.92625751       1.54168535
H       -0.65111633       1.76177965      -0.91669166
13
Frame=15 idx=000454 GeodesicLength=1.3860340347218298 rxn_smarts="[O:1]([C@@:2]1([H:8])[C:3]([H:9])([H:10])[C@@:4]2([H:11])[N:5]([H:12])[C@@:6]12[H:13])[H:7]>>[O:1]1[C@@:2]2([H:8])[C:3]([H:9])([H:10])[C@:4]([N:5]([H:7])[H:12])([H:11])[C@@:6]12[H:13]"
O        1.46170772       0.93741978       0.28749059
C        1.01321080       0.09697283      -0.74083593
C        0.33605911      -1.20411686      -0.25557459
C       -0.90593076      -0.36879006       0.09463971
N       -0.72621551       0.38340768       1.32562999
C       -0.24801489       0.85339649      -0.48545638
H        0.64862031       0.73958022       1.50603977
H        1.54549956       0.16517532      -1.68186989
H        0.82894976      -1.68756399       0.58807866
H        0.15860603      -1.92352964      -1.05358479
H       -1.90468446      -0.66197371      -0.20208740
H       -1.56054006       0.91316961       1.54325324
H       -0.64726760       1.75685235      -0.92572299
13
Frame=16 idx=000454 GeodesicLength=1.478423204796939 rxn_smarts="[O:1]([C@@:2]1([H:8])[C:3]([H:9])([H:10])[C@@:4]2([H:11])[N:5]([H:12])[C@@:6]12[H:13])[H:7]>>[O:1]1[C@@:2]2([H:8])[C:3]([H:9])([H:10])[C@:4]([N:5]([H:7])[H:12])([H:11])[C@@:6]12[H:13]"
O        1.45058687       0.93949143       0.28748632
C        1.00811315       0.09273468      -0.74455112
C        0.33418622      -1.20512441      -0.25569299
C       -0.90656181      -0.36835179       0.09609318
N       -0.73097071       0.38580042       1.32535980
C       -0.24312366       0.85929243      -0.47272832
H        0.68053820       0.74561407       1.51100154
H        1.54289936       0.16780186      -1.68226519
H        0.82946085      -1.68524880       0.58864062
H        0.15594774      -1.92878812      -1.04956477
H       -1.90301610      -0.65482502      -0.21398729
H       -1.57476593       0.89995336       1.54449419
H       -0.64329419       1.75164989      -0.93428597
