17
Frame=0 idx=010794 GeodesicLength=0.0 rxn_smarts="[C:1]([O:2][C@@:3]1([H:11])[C:4]([H:12])([H:13])[C@:5]1([C:6]([O:7][H:17])([H:15])[H:16])[H:14])([H:8])([H:9])[H:10]>>[C:1]([O:2][H:17])([H:8])([H:9])[H:10].[C:3](=[C:4]([H:12])[H:13])([C@@:5]1([H:14])[C:6]([H:15])([H:16])[O:7]1)[H:11]"
C        2.19635097       0.56634438      -0.64540700
O        0.91748273       0.89881146      -0.18435450
C        0.08188835      -0.55920907       0.75529409
C       -0.59287502      -0.31333148       1.93041883
C       -1.01498451      -0.86469885      -0.09097805
C       -1.83560877       0.21579113      -0.66921211
O       -0.86528104       0.34059301      -1.67356175
H        2.63005555       1.40143440      -1.20505059
H        2.18765185      -0.31056221      -1.31113093
H        2.86659483       0.34753371       0.19469934
H        0.94080908      -1.21832881       0.76844584
H       -0.21010480      -0.66510361       2.88002104
H       -1.49381680       0.28224302       1.94694414
H       -1.12121471      -1.86234905      -0.50024963
H       -2.80011693      -0.09803030      -1.06829960
H       -1.94767458       1.10337711      -0.04082603
H        0.06084384       0.73548524      -1.08675301
17
Frame=1 idx=010794 GeodesicLength=0.10360830996832811 rxn_smarts="[C:1]([O:2][C@@:3]1([H:11])[C:4]([H:12])([H:13])[C@:5]1([C:6]([O:7][H:17])([H:15])[H:16])[H:14])([H:8])([H:9])[H:10]>>[C:1]([O:2][H:17])([H:8])([H:9])[H:10].[C:3](=[C:4]([H:12])[H:13])([C@@:5]1([H:14])[C:6]([H:15])([H:16])[O:7]1)[H:11]"
C        2.21978740       0.59083956      -0.63976934
O        0.92175681       0.87412509      -0.20406380
C        0.07924528      -0.58003911       0.74270834
C       -0.59581860      -0.33612305       1.91949363
C       -1.04187723      -0.86577788      -0.08555904
C       -1.84818138       0.22748056      -0.66055585
O       -0.88541881       0.31057235      -1.67750525
H        2.61234292       1.39687138      -1.26843483
H        2.28507439      -0.33710581      -1.22803148
H        2.89278058       0.48573575       0.22002956
H        0.92142150      -1.26077872       0.74896984
H       -0.23643549      -0.73152747       2.86109610
H       -1.45642854       0.31578324       1.95327876
H       -1.17922588      -1.86502308      -0.48179927
H       -2.82456880      -0.06735658      -1.04426739
H       -1.92576040       1.12431201      -0.04058233
H        0.06130624       0.71801177      -1.11500764
17
Frame=2 idx=010794 GeodesicLength=0.20556293189174893 rxn_smarts="[C:1]([O:2][C@@:3]1([H:11])[C:4]([H:12])([H:13])[C@:5]1([C:6]([O:7][H:17])([H:15])[H:16])[H:14])([H:8])([H:9])[H:10]>>[C:1]([O:2][H:17])([H:8])([H:9])[H:10].[C:3](=[C:4]([H:12])[H:13])([C@@:5]1([H:14])[C:6]([H:15])([H:16])[O:7]1)[H:11]"
C        2.24258799       0.61500851      -0.63346478
O        0.92720504       0.84655686      -0.22406677
C        0.07622902      -0.60350777       0.72901005
C       -0.59836868      -0.35998442       1.90766266
C       -1.06906041      -0.86678050      -0.08079189
C       -1.85995853       0.24038105      -0.65128269
O       -0.90625586       0.28253763      -1.68034302
H        2.59504118       1.37898340      -1.33452138
H        2.38722693      -0.35588637      -1.13042451
H        2.91017141       0.63504163       0.23678141
H        0.90003639      -1.30666983       0.72770630
H       -0.26220100      -0.79458833       2.84058633
H       -1.41601284       0.34407618       1.95982506
H       -1.23847437      -1.86616232      -0.46440631
H       -2.84780901      -0.03387862      -1.01994782
H       -1.90207886       1.14475080      -0.03931632
H        0.06172159       0.70012210      -1.14300631
17
Frame=3 idx=010794 GeodesicLength=0.3048516629868053 rxn_smarts="[C:1]([O:2][C@@:3]1([H:11])[C:4]([H:12])([H:13])[C@:5]1([C:6]([O:7][H:17])([H:15])[H:16])[H:14])([H:8])([H:9])[H:10]>>[C:1]([O:2][H:17])([H:8])([H:9])[H:10].[C:3](=[C:4]([H:12])[H:13])([C@@:5]1([H:14])[C:6]([H:15])([H:16])[O:7]1)[H:11]"
C        2.26450728       0.63915472      -0.62615401
O        0.93336747       0.81656220      -0.24557346
C        0.07299582      -0.62940048       0.71334584
C       -0.59953246      -0.38501043       1.89452624
C       -1.09657146      -0.86761158      -0.07688370
C       -1.87115970       0.25443079      -0.64123069
O       -0.92861150       0.25648712      -1.68241180
H        2.58292611       1.34513873      -1.40065455
H        2.49235993      -0.36377548      -1.01601982
H        2.91390276       0.79387561       0.24443406
H        0.87656942      -1.35575771       0.70324899
H       -0.28451214      -0.85371751       2.81828426
H       -1.37197067       0.36687312       1.96629326
H       -1.29901364      -1.86561562      -0.44819478
H       -2.87014333       0.00213410      -0.99448876
H       -1.87669963       1.16449844      -0.03676910
H        0.06158573       0.68173400      -1.17175198
17
Frame=4 idx=010794 GeodesicLength=0.40173531681228913 rxn_smarts="[C:1]([O:2][C@@:3]1([H:11])[C:4]([H:12])([H:13])[C@:5]1([C:6]([O:7][H:17])([H:15])[H:16])[H:14])([H:8])([H:9])[H:10]>>[C:1]([O:2][H:17])([H:8])([H:9])[H:10].[C:3](=[C:4]([H:12])[H:13])([C@@:5]1([H:14])[C:6]([H:15])([H:16])[O:7]1)[H:11]"
C        2.28543619       0.66271629      -0.61791647
O        0.94099940       0.78390523      -0.26714022
C        0.06945190      -0.65795203       0.69629291
C       -0.60008197      -0.41174083       1.88038089
C       -1.12400625      -0.86811876      -0.07382570
C       -1.88116289       0.26992526      -0.63040977
O       -0.95126073       0.23335579      -1.68335488
H        2.57469274       1.29150725      -1.46690644
H        2.59902121      -0.35734973      -0.88251838
H        2.90517939       0.96297091       0.23611015
H        0.85110253      -1.40790679       0.67626306
H       -0.30492534      -0.91071701       2.79481502
H       -1.32555286       0.38357515       1.97286024
H       -1.36023946      -1.86306049      -0.43353284
H       -2.89065825       0.04105920      -0.96868256
H       -1.84931325       1.18366708      -0.03278427
H        0.06131764       0.66416348      -1.19965074
17
Frame=5 idx=010794 GeodesicLength=0.49501431585036215 rxn_smarts="[C:1]([O:2][C@@:3]1([H:11])[C:4]([H:12])([H:13])[C@:5]1([C:6]([O:7][H:17])([H:15])[H:16])[H:14])([H:8])([H:9])[H:10]>>[C:1]([O:2][H:17])([H:8])([H:9])[H:10].[C:3](=[C:4]([H:12])[H:13])([C@@:5]1([H:14])[C:6]([H:15])([H:16])[O:7]1)[H:11]"
C        2.30499733       0.68588024      -0.60851578
O        0.94955783       0.74964530      -0.28975081
C        0.06595808      -0.68859452       0.67722238
C       -0.59913562      -0.44002971       1.86493395
C       -1.15099488      -0.86823196      -0.07173335
C       -1.89017797       0.28651761      -0.61863372
O       -0.97481261       0.21326394      -1.68342339
H        2.57639795       1.21611050      -1.52785931
H        2.70184818      -0.33193742      -0.72980622
H        2.88031663       1.13684816       0.20949432
H        0.82411536      -1.46218396       0.64586388
H       -0.32133946      -0.96533492       2.77000763
H       -1.27581012       0.39468284       1.97912764
H       -1.42132091      -1.85849531      -0.42049861
H       -2.90952650       0.08198756      -0.94179589
H       -1.82040228       1.20186823      -0.02715974
H        0.06032900       0.64800342      -1.22747297
17
Frame=6 idx=010794 GeodesicLength=0.5845216878387177 rxn_smarts="[C:1]([O:2][C@@:3]1([H:11])[C:4]([H:12])([H:13])[C@:5]1([C:6]([O:7][H:17])([H:15])[H:16])[H:14])([H:8])([H:9])[H:10]>>[C:1]([O:2][H:17])([H:8])([H:9])[H:10].[C:3](=[C:4]([H:12])[H:13])([C@@:5]1([H:14])[C:6]([H:15])([H:16])[O:7]1)[H:11]"
C        2.32296360       0.70828238      -0.59820415
O        0.95933247       0.71469830      -0.31227713
C        0.06271346      -0.72076909       0.65673844
C       -0.59717001      -0.46975324       1.84851174
C       -1.17679944      -0.86785780      -0.07047488
C       -1.89779129       0.30398797      -0.60591858
O       -0.99821006       0.19675749      -1.68235119
H        2.58903266       1.11813091      -1.57869960
H        2.79566217      -0.28299455      -0.56098888
H        2.84134896       1.30968465       0.15868382
H        0.79629059      -1.51743594       0.61296836
H       -0.33515685      -1.01869109       2.74423178
H       -1.22390573       0.40005762       1.98518570
H       -1.48083875      -1.85193724      -0.40919178
H       -2.92607196       0.12420860      -0.91435618
H       -1.79029547       1.21889360      -0.01984898
H        0.05889565       0.63473744      -1.25400850
17
Frame=7 idx=010794 GeodesicLength=0.6701932901877161 rxn_smarts="[C:1]([O:2][C@@:3]1([H:11])[C:4]([H:12])([H:13])[C@:5]1([C:6]([O:7][H:17])([H:15])[H:16])[H:14])([H:8])([H:9])[H:10]>>[C:1]([O:2][H:17])([H:8])([H:9])[H:10].[C:3](=[C:4]([H:12])[H:13])([C@@:5]1([H:14])[C:6]([H:15])([H:16])[O:7]1)[H:11]"
C        2.33907435       0.73003222      -0.58698826
O        0.96994533       0.67973091      -0.33503607
C        0.05995099      -0.75388981       0.63504421
C       -0.59388386      -0.49987998       1.83123953
C       -1.20110855      -0.86711224      -0.06959410
C       -1.90389708       0.32173112      -0.59241827
O       -1.02127067       0.18280277      -1.68036512
H        2.61497029       1.00413479      -1.61120186
H        2.87406422      -0.20798225      -0.38531446
H        2.79027059       1.47080778       0.08422505
H        0.76822163      -1.57267444       0.57821876
H       -0.34647398      -1.07011011       2.71778158
H       -1.16943633       0.40114094       1.99059672
H       -1.53828929      -1.84380864      -0.39854660
H       -2.94018241       0.16670859      -0.88631759
H       -1.75913021       1.23454360      -0.01152974
H        0.05717500       0.62382477      -1.27979377
17
Frame=8 idx=010794 GeodesicLength=0.7532058113611166 rxn_smarts="[C:1]([O:2][C@@:3]1([H:11])[C:4]([H:12])([H:13])[C@:5]1([C:6]([O:7][H:17])([H:15])[H:16])[H:14])([H:8])([H:9])[H:10]>>[C:1]([O:2][H:17])([H:8])([H:9])[H:10].[C:3](=[C:4]([H:12])[H:13])([C@@:5]1([H:14])[C:6]([H:15])([H:16])[O:7]1)[H:11]"
C        2.35322034       0.75158900      -0.57487615
O        0.98120001       0.64459464      -0.35852233
C        0.05768060      -0.78777036       0.61228660
C       -0.58905149      -0.52972830       1.81320192
C       -1.22400254      -0.86604791      -0.06864917
C       -1.90836289       0.33952942      -0.57825072
O       -1.04406191       0.17031289      -1.67768530
H        2.65441703       0.88161754      -1.62022889
H        2.93334220      -0.10693083      -0.21105419
H        2.73024002       1.61304554      -0.01079552
H        0.73996472      -1.62767232       0.54214557
H       -0.35564051      -1.11940585       2.69078661
H       -1.11194720       0.39897291       1.99504502
H       -1.59406137      -1.83427751      -0.38747565
H       -2.95187844       0.20939584      -0.85747344
H       -1.72649277       1.24891240      -0.00287284
H        0.05543421       0.61386290      -1.30558153
17
Frame=9 idx=010794 GeodesicLength=0.8338089937083613 rxn_smarts="[C:1]([O:2][C@@:3]1([H:11])[C:4]([H:12])([H:13])[C@:5]1([C:6]([O:7][H:17])([H:15])[H:16])[H:14])([H:8])([H:9])[H:10]>>[C:1]([O:2][H:17])([H:8])([H:9])[H:10].[C:3](=[C:4]([H:12])[H:13])([C@@:5]1([H:14])[C:6]([H:15])([H:16])[O:7]1)[H:11]"
C        2.36499576       0.77297226      -0.56234221
O        0.99286271       0.61114501      -0.38173125
C        0.05617018      -0.82129456       0.58919569
C       -0.58321725      -0.55877089       1.79492700
C       -1.24469604      -0.86471401      -0.06752578
C       -1.91122875       0.35678097      -0.56358616
O       -1.06582365       0.15947175      -1.67419907
H        2.70501889       0.75811961      -1.60379538
H        2.96862425       0.01508285      -0.04603432
H        2.66889140       1.73077213      -0.12416987
H        0.71184752      -1.68134329       0.50621419
H       -0.36436262      -1.16685777       2.66368409
H       -1.05224351       0.39416513       1.99851318
H       -1.64617533      -1.82381714      -0.37612034
H       -2.96093674       0.25058775      -0.82843385
H       -1.69356438       1.26164289       0.00605362
H        0.05383756       0.60605731      -1.33064954
17
Frame=10 idx=010794 GeodesicLength=0.9133260890822942 rxn_smarts="[C:1]([O:2][C@@:3]1([H:11])[C:4]([H:12])([H:13])[C@:5]1([C:6]([O:7][H:17])([H:15])[H:16])[H:14])([H:8])([H:9])[H:10]>>[C:1]([O:2][H:17])([H:8])([H:9])[H:10].[C:3](=[C:4]([H:12])[H:13])([C@@:5]1([H:14])[C:6]([H:15])([H:16])[O:7]1)[H:11]"
C        2.37474691       0.79476014      -0.54969096
O        1.00561408       0.57673378      -0.40515938
C        0.05490344      -0.85514686       0.56623598
C       -0.57647588      -0.58664048       1.77665257
C       -1.26388140      -0.86306242      -0.06568000
C       -1.91186260       0.37387331      -0.54858813
O       -1.08646839       0.14882040      -1.67001596
H        2.76333087       0.64196426      -1.56278132
H        2.98377198       0.15587273       0.10233853
H        2.60727672       1.82242298      -0.24880020
H        0.68280525      -1.73476768       0.47119819
H       -0.37374917      -1.21231916       2.63676201
H       -0.99112311       0.38683459       2.00110297
H       -1.69651612      -1.81215136      -0.36329858
H       -2.96697395       0.29181884      -0.79916665
H       -1.65846803       1.27330665       0.01442355
H        0.05306939       0.59768026      -1.35553261
17
Frame=11 idx=010794 GeodesicLength=0.9921075383443118 rxn_smarts="[C:1]([O:2][C@@:3]1([H:11])[C:4]([H:12])([H:13])[C@:5]1([C:6]([O:7][H:17])([H:15])[H:16])[H:14])([H:8])([H:9])[H:10]>>[C:1]([O:2][H:17])([H:8])([H:9])[H:10].[C:3](=[C:4]([H:12])[H:13])([C@@:5]1([H:14])[C:6]([H:15])([H:16])[O:7]1)[H:11]"
C        2.38208411       0.81752558      -0.53658344
O        1.01946911       0.53938559      -0.43141354
C        0.05360513      -0.88999947       0.54290653
C       -0.56795887      -0.61241951       1.75824001
C       -1.28225542      -0.86129396      -0.06257064
C       -1.91040895       0.39071422      -0.53362877
O       -1.10691561       0.13655153      -1.66586615
H        2.82882718       0.54519216      -1.49952326
H        2.97681276       0.30606355       0.23019014
H        2.54769761       1.88793017      -0.37313645
H        0.65162245      -1.78935744       0.43702415
H       -0.38166016      -1.25348576       2.61071152
H       -0.92646876       0.37890347       2.00168200
H       -1.74649665      -1.79948035      -0.34721509
H       -2.97038650       0.33346452      -0.76914480
H       -1.62050425       1.28413546       0.02085081
H        0.05293682       0.58617023      -1.38252301
17
Frame=12 idx=010794 GeodesicLength=1.0703696885869718 rxn_smarts="[C:1]([O:2][C@@:3]1([H:11])[C:4]([H:12])([H:13])[C@:5]1([C:6]([O:7][H:17])([H:15])[H:16])[H:14])([H:8])([H:9])[H:10]>>[C:1]([O:2][H:17])([H:8])([H:9])[H:10].[C:3](=[C:4]([H:12])[H:13])([C@@:5]1([H:14])[C:6]([H:15])([H:16])[O:7]1)[H:11]"
C        2.38662588       0.84135302      -0.52374460
O        1.03515981       0.49926322      -0.45818460
C        0.05219439      -0.92590226       0.51988798
C       -0.55855941      -0.63752486       1.74008920
C       -1.29927895      -0.85911371      -0.05859031
C       -1.90609455       0.40787788      -0.51836300
O       -1.12593986       0.12432224      -1.66105720
H        2.89696692       0.46311008      -1.41692582
H        2.95069073       0.46709739       0.33855154
H        2.49152632       1.93099982      -0.50116293
H        0.61812448      -1.84498830       0.40417056
H       -0.39078670      -1.29320099       2.58527489
H       -0.86021268       0.36838776       2.00126572
H       -1.79522438      -1.78520836      -0.32944906
H       -2.97014346       0.37630646      -0.73881493
H       -1.57921887       1.29418844       0.02649430
H        0.05417032       0.57303217      -1.40944171
17
Frame=13 idx=010794 GeodesicLength=1.1486188332165925 rxn_smarts="[C:1]([O:2][C@@:3]1([H:11])[C:4]([H:12])([H:13])[C@:5]1([C:6]([O:7][H:17])([H:15])[H:16])[H:14])([H:8])([H:9])[H:10]>>[C:1]([O:2][H:17])([H:8])([H:9])[H:10].[C:3](=[C:4]([H:12])[H:13])([C@@:5]1([H:14])[C:6]([H:15])([H:16])[O:7]1)[H:11]"
C        2.38725389       0.86660705      -0.51021482
O        1.05279798       0.45428658      -0.48845968
C        0.05047278      -0.96384047       0.49592303
C       -0.54660058      -0.66159135       1.72147232
C       -1.31555333      -0.85640567      -0.05346287
C       -1.89868708       0.42570921      -0.50285366
O       -1.14473660       0.11106427      -1.65612598
H        2.96795832       0.40113691      -1.31507873
H        2.90080227       0.63360631       0.42912294
H        2.43934398       1.95363638      -0.62687323
H        0.58106263      -1.90304016       0.37133800
H       -0.39744613      -1.32973263       2.56038208
H       -0.78928667       0.35622409       1.99858542
H       -1.84439489      -1.76879710      -0.30856243
H       -2.96619554       0.42151232      -0.70712587
H       -1.53313989       1.30364484       0.03045971
H        0.05634884       0.55597942      -1.43852622
17
Frame=14 idx=010794 GeodesicLength=1.227490056036797 rxn_smarts="[C:1]([O:2][C@@:3]1([H:11])[C:4]([H:12])([H:13])[C@:5]1([C:6]([O:7][H:17])([H:15])[H:16])[H:14])([H:8])([H:9])[H:10]>>[C:1]([O:2][H:17])([H:8])([H:9])[H:10].[C:3](=[C:4]([H:12])[H:13])([C@@:5]1([H:14])[C:6]([H:15])([H:16])[O:7]1)[H:11]"
C        2.38295947       0.89342236      -0.49698881
O        1.07343896       0.40330999      -0.52051831
C        0.04820780      -1.00428309       0.47196093
C       -0.53282472      -0.68544922       1.70298092
C       -1.33059944      -0.85291024      -0.04714333
C       -1.88678758       0.44473159      -0.48710612
O       -1.16189472       0.09726368      -1.65072888
H        3.03773141       0.36081763      -1.19686932
H        2.82922826       0.80457782       0.49878447
H        2.39035069       1.95803577      -0.74941849
H        0.53977664      -1.96389118       0.33972162
H       -0.40476404      -1.36490756       2.53630166
H       -0.71441832       0.34140248       1.99422585
H       -1.89366265      -1.74951274      -0.28492178
H       -2.95685772       0.47029978      -0.67460492
H       -1.48070498       1.31257522       0.03286796
H        0.06082095       0.53451772      -1.46854346
17
Frame=15 idx=010794 GeodesicLength=1.3066033679015325 rxn_smarts="[C:1]([O:2][C@@:3]1([H:11])[C:4]([H:12])([H:13])[C@:5]1([C:6]([O:7][H:17])([H:15])[H:16])[H:14])([H:8])([H:9])[H:10]>>[C:1]([O:2][H:17])([H:8])([H:9])[H:10].[C:3](=[C:4]([H:12])[H:13])([C@@:5]1([H:14])[C:6]([H:15])([H:16])[O:7]1)[H:11]"
C        2.37389233       0.92080453      -0.48395563
O        1.09462800       0.35522174      -0.55137989
C        0.04663238      -1.04448414       0.44697799
C       -0.51701266      -0.70996556       1.68391540
C       -1.34314828      -0.84861182      -0.04070476
C       -1.87259143       0.46394955      -0.47034354
O       -1.17786742       0.08624155      -1.64407903
H        3.09955709       0.33020683      -1.05588553
H        2.73128846       0.98073250       0.54828540
H        2.35870510       1.94117468      -0.87721412
H        0.49754188      -2.02324844       0.30701738
H       -0.40876197      -1.39953778       2.51173539
H       -0.63810483       0.32207745       1.98893236
H       -1.93908108      -1.72832982      -0.26129890
H       -2.94413541       0.51875522      -0.64115491
H       -1.42724375       1.32000790       0.03642881
H        0.06570160       0.51500562      -1.49727640
17
Frame=16 idx=010794 GeodesicLength=1.3868401055466497 rxn_smarts="[C:1]([O:2][C@@:3]1([H:11])[C:4]([H:12])([H:13])[C@:5]1([C:6]([O:7][H:17])([H:15])[H:16])[H:14])([H:8])([H:9])[H:10]>>[C:1]([O:2][H:17])([H:8])([H:9])[H:10].[C:3](=[C:4]([H:12])[H:13])([C@@:5]1([H:14])[C:6]([H:15])([H:16])[O:7]1)[H:11]"
C        2.36014345       0.94882492      -0.47252770
O        1.11792860       0.30637022      -0.57971952
C        0.04483801      -1.08541695       0.42281891
C       -0.50084695      -0.73493339       1.66543221
C       -1.35349750      -0.84351729      -0.03356842
C       -1.85445728       0.48368337      -0.45329600
O       -1.19099751       0.07637215      -1.63636664
H        3.14986733       0.32069912      -0.90233397
H        2.61585994       1.15404838       0.57018384
H        2.33884822       1.90716008      -0.99812249
H        0.45272576      -2.08238916       0.27603694
H       -0.41423789      -1.43379781       2.48798840
H       -0.56112014       0.29891783       1.98306993
H       -1.98180770      -1.70480077      -0.23681422
H       -2.92626725       0.56855954      -0.60796422
H       -1.37021898       1.32626014       0.03974879
H        0.07323988       0.49395964      -1.52456583
