13
Frame=0 idx=002100 GeodesicLength=0.0 rxn_smarts="[C:1]([c:2]1[c:3]([H:10])[c:4]([H:11])[c:5]([H:12])[n:6]1[H:13])([H:7])([H:8])[H:9]>>[C:1]([C:3](=[C:2]=[N:6][H:13])[H:10])([H:7])([H:8])[H:9].[C:4](#[C:5][H:12])[H:11]"
C        2.09932140      -0.00371901      -0.06708129
C        0.55034116      -0.46044642      -0.16482476
C        0.31584315       0.86030806      -0.33269277
C       -3.16942204       1.00594988       0.15824274
C       -2.58371691      -0.03173004       0.04702221
N        0.11703350      -1.64426746      -0.18431420
H        2.44229592      -0.47644708       0.85256574
H        2.57817802      -0.39974310      -0.95773718
H        2.32914251       1.06323492      -0.01894362
H        0.20272303       1.44793216       0.57946809
H       -3.70058433       1.92445864       0.24648328
H       -2.03330243      -0.94825510      -0.05151552
H        0.85214704      -2.33727550      -0.10667274
13
Frame=1 idx=002100 GeodesicLength=0.11026301899807185 rxn_smarts="[C:1]([c:2]1[c:3]([H:10])[c:4]([H:11])[c:5]([H:12])[n:6]1[H:13])([H:7])([H:8])[H:9]>>[C:1]([C:3](=[C:2]=[N:6][H:13])[H:10])([H:7])([H:8])[H:9].[C:4](#[C:5][H:12])[H:11]"
C        2.09936812       0.00980525      -0.06858342
C        0.53560722      -0.44160764      -0.14639272
C        0.31571487       0.88174416      -0.29848887
C       -3.09595595       1.00727931       0.09138141
C       -2.55934458      -0.06640196       0.03760148
N        0.07152159      -1.61175774      -0.23774086
H        2.45689021      -0.47664977       0.83864962
H        2.56245960      -0.38613755      -0.96799072
H        2.35122989       1.07131157      -0.01489608
H        0.21986661       1.46410939       0.61868435
H       -3.67614007       1.89344578       0.20371470
H       -2.05921673      -1.01474280       0.07818273
H        0.77799923      -2.33039800      -0.13412162
13
Frame=2 idx=002100 GeodesicLength=0.22217070839415304 rxn_smarts="[C:1]([c:2]1[c:3]([H:10])[c:4]([H:11])[c:5]([H:12])[n:6]1[H:13])([H:7])([H:8])[H:9]>>[C:1]([C:3](=[C:2]=[N:6][H:13])[H:10])([H:7])([H:8])[H:9].[C:4](#[C:5][H:12])[H:11]"
C        2.10135090       0.02235982      -0.07774957
C        0.52178077      -0.42281398      -0.11279174
C        0.31613234       0.90380602      -0.24054799
C       -3.03015809       0.99870263       0.01889784
C       -2.53822220      -0.10313961       0.02174698
N        0.02264445      -1.57345508      -0.26765919
H        2.48683115      -0.48055251       0.80922413
H        2.53394172      -0.37097712      -0.99374585
H        2.37741785       1.07744858      -0.02028803
H        0.25251661       1.47710337       0.68476483
H       -3.65857964       1.85113661       0.14341151
H       -2.08358344      -1.05892631       0.19468817
H        0.69792758      -2.32069242      -0.15995108
13
Frame=3 idx=002100 GeodesicLength=0.3359245876357992 rxn_smarts="[C:1]([c:2]1[c:3]([H:10])[c:4]([H:11])[c:5]([H:12])[n:6]1[H:13])([H:7])([H:8])[H:9]>>[C:1]([C:3](=[C:2]=[N:6][H:13])[H:10])([H:7])([H:8])[H:9].[C:4](#[C:5][H:12])[H:11]"
C        2.10224177       0.03660567      -0.09060381
C        0.50926094      -0.40782937      -0.06844892
C        0.31456198       0.92090017      -0.17477618
C       -2.96908742       0.98386434      -0.05153370
C       -2.51921915      -0.14087200      -0.00922289
N       -0.02489930      -1.53653899      -0.27436018
H        2.52355543      -0.47827499       0.77329032
H        2.49752702      -0.35561748      -1.02418451
H        2.40023742       1.08570751      -0.03667395
H        0.28879071       1.48735125       0.75622765
H       -3.62797478       1.80920164       0.09946852
H       -2.11411645      -1.09345314       0.27052321
H        0.61912182      -2.31104462      -0.16970555
13
Frame=4 idx=002100 GeodesicLength=0.4499847539270143 rxn_smarts="[C:1]([c:2]1[c:3]([H:10])[c:4]([H:11])[c:5]([H:12])[n:6]1[H:13])([H:7])([H:8])[H:9]>>[C:1]([C:3](=[C:2]=[N:6][H:13])[H:10])([H:7])([H:8])[H:9].[C:4](#[C:5][H:12])[H:11]"
C        2.10201857       0.05192183      -0.10362615
C        0.49869699      -0.39712461      -0.02401078
C        0.31255062       0.93302974      -0.10991014
C       -2.90761996       0.96843284      -0.10738761
C       -2.49924928      -0.17659304      -0.03760822
N       -0.06991636      -1.50227452      -0.27318729
H        2.55970477      -0.47230454       0.73621896
H        2.46060302      -0.33910081      -1.05282784
H        2.41899076       1.09559794      -0.05612897
H        0.32290352       1.49275043       0.82513015
H       -3.59527656       1.76933613       0.05262481
H       -2.14626978      -1.12125066       0.32666747
H        0.54286369      -2.30242075      -0.17595440
13
Frame=5 idx=002100 GeodesicLength=0.5639971731474973 rxn_smarts="[C:1]([c:2]1[c:3]([H:10])[c:4]([H:11])[c:5]([H:12])[n:6]1[H:13])([H:7])([H:8])[H:9]>>[C:1]([C:3](=[C:2]=[N:6][H:13])[H:10])([H:7])([H:8])[H:9].[C:4](#[C:5][H:12])[H:11]"
C        2.10092092       0.06816332      -0.11590375
C        0.48994118      -0.39031043       0.01826804
C        0.31038545       0.94059232      -0.04979048
C       -2.84570606       0.95452233      -0.14890649
C       -2.47807713      -0.20922041      -0.06461278
N       -0.11181893      -1.47151496      -0.26628014
H        2.59366060      -0.46175092       0.70064158
H        2.42545852      -0.32305246      -1.07763092
H        2.43389604       1.10710203      -0.07814256
H        0.35325056       1.49485440       0.88725478
H       -3.56098041       1.73249081       0.00938753
H       -2.18073594      -1.14664174       0.36266067
H        0.46980520      -2.29523428      -0.17694547
13
Frame=6 idx=002100 GeodesicLength=0.6778631633094064 rxn_smarts="[C:1]([c:2]1[c:3]([H:10])[c:4]([H:11])[c:5]([H:12])[n:6]1[H:13])([H:7])([H:8])[H:9]>>[C:1]([C:3](=[C:2]=[N:6][H:13])[H:10])([H:7])([H:8])[H:9].[C:4](#[C:5][H:12])[H:11]"
C        2.09913148       0.08521897      -0.12740268
C        0.48262485      -0.38675599       0.05745801
C        0.30804655       0.94440237       0.00572582
C       -2.78441209       0.94175813      -0.18091831
C       -2.45611921      -0.23912572      -0.09039503
N       -0.15091219      -1.44413511      -0.25579954
H        2.62525185      -0.44727537       0.66677832
H        2.39261167      -0.30746645      -1.09890106
H        2.44539037       1.12004723      -0.10179766
H        0.37977610       1.49392179       0.94347674
H       -3.52443556       1.69891781      -0.02928155
H       -2.21651241      -1.17004131       0.38474707
H        0.39955859      -2.28946635      -0.17369011
13
Frame=7 idx=002100 GeodesicLength=0.7916412136283099 rxn_smarts="[C:1]([c:2]1[c:3]([H:10])[c:4]([H:11])[c:5]([H:12])[n:6]1[H:13])([H:7])([H:8])[H:9]>>[C:1]([C:3](=[C:2]=[N:6][H:13])[H:10])([H:7])([H:8])[H:9].[C:4](#[C:5][H:12])[H:11]"
C        2.09686201       0.10298125      -0.13841763
C        0.47658228      -0.38595232       0.09401411
C        0.30568938       0.94508900       0.05744104
C       -2.72405288       0.93044470      -0.20485106
C       -2.43345757      -0.26631016      -0.11578664
N       -0.18736979      -1.42002127      -0.24217039
H        2.65506457      -0.42923017       0.63423968
H        2.36179716      -0.29258567      -1.11738157
H        2.45396591       1.13427099      -0.12726530
H        0.40332973       1.49054252       0.99491702
H       -3.48652048       1.66838098      -0.06327821
H       -2.25368363      -1.19243873       0.39395445
H        0.33179331      -2.28517111      -0.16541548
13
Frame=8 idx=002100 GeodesicLength=0.9052865807222689 rxn_smarts="[C:1]([c:2]1[c:3]([H:10])[c:4]([H:11])[c:5]([H:12])[n:6]1[H:13])([H:7])([H:8])[H:9]>>[C:1]([C:3](=[C:2]=[N:6][H:13])[H:10])([H:7])([H:8])[H:9].[C:4](#[C:5][H:12])[H:11]"
C        2.09424829       0.12131663      -0.14914726
C        0.47169661      -0.38745712       0.12838663
C        0.30351111       0.94316074       0.10606641
C       -2.66481441       0.92063655      -0.22109121
C       -2.41012688      -0.29079064      -0.14073927
N       -0.22146543      -1.39887431      -0.22569114
H        2.68349606      -0.40806017       0.60262324
H        2.33274398      -0.27855000      -1.13361221
H        2.46001063       1.14952119      -0.15454983
H        0.42469793       1.48517111       1.04247759
H       -3.44810320       1.64050214      -0.09379732
H       -2.29206357      -1.21437541       0.39124019
H        0.26616889      -2.28220072      -0.15216583
13
Frame=9 idx=002100 GeodesicLength=1.0187933351446055 rxn_smarts="[C:1]([c:2]1[c:3]([H:10])[c:4]([H:11])[c:5]([H:12])[n:6]1[H:13])([H:7])([H:8])[H:9]>>[C:1]([C:3](=[C:2]=[N:6][H:13])[H:10])([H:7])([H:8])[H:9].[C:4](#[C:5][H:12])[H:11]"
C        2.09138525       0.14009279      -0.15951621
C        0.46776781      -0.39089745       0.16051173
C        0.30157954       0.93903644       0.15156305
C       -2.60701812       0.91191036      -0.23094605
C       -2.38629300      -0.31293969      -0.16526239
N       -0.25357349      -1.38041754      -0.20691801
H        2.71049689      -0.38420295       0.57205805
H        2.30560394      -0.26545881      -1.14769144
H        2.46386328       1.16553559      -0.18318149
H        0.44402927       1.47823650       1.08627111
H       -3.40918999       1.61497220      -0.12076396
H       -2.33103606      -1.23550738       0.37864619
H        0.20238468      -2.28036006      -0.13477058
13
Frame=10 idx=002100 GeodesicLength=1.1322233776286503 rxn_smarts="[C:1]([c:2]1[c:3]([H:10])[c:4]([H:11])[c:5]([H:12])[n:6]1[H:13])([H:7])([H:8])[H:9]>>[C:1]([C:3](=[C:2]=[N:6][H:13])[H:10])([H:7])([H:8])[H:9].[C:4](#[C:5][H:12])[H:11]"
C        2.08824263       0.15930683      -0.16975458
C        0.46470032      -0.39604606       0.19078551
C        0.29995774       0.93302082       0.19475129
C       -2.55072722       0.90398142      -0.23535209
C       -2.36191593      -0.33300758      -0.18979190
N       -0.28396815      -1.36447932      -0.18585868
H        2.73631132      -0.35782784       0.54213048
H        2.27996702      -0.25331498      -1.16010876
H        2.46558866       1.18225383      -0.21336942
H        0.46193915       1.46984616       1.12732870
H       -3.36982270       1.59154362      -0.14453935
H       -2.37035556      -1.25568585       0.35673367
H        0.14008272      -2.27959106      -0.11295489
13
Frame=11 idx=002100 GeodesicLength=1.2455576136516682 rxn_smarts="[C:1]([c:2]1[c:3]([H:10])[c:4]([H:11])[c:5]([H:12])[n:6]1[H:13])([H:7])([H:8])[H:9]>>[C:1]([C:3](=[C:2]=[N:6][H:13])[H:10])([H:7])([H:8])[H:9].[C:4](#[C:5][H:12])[H:11]"
C        2.08475965       0.17896060      -0.17995867
C        0.46236632      -0.40277578       0.21919160
C        0.29865596       0.92523352       0.23622563
C       -2.49597978       0.89640262      -0.23555125
C       -2.33709530      -0.35134162      -0.21405949
N       -0.31298035      -1.35081345      -0.16296449
H        2.76096161      -0.32926242       0.51249473
H        2.25562787      -0.24179374      -1.17119907
H        2.46519886       1.19958360      -0.24478301
H        0.47871169       1.45968326       1.16652575
H       -3.32989569       1.56994546      -0.16618362
H       -2.40926277      -1.27413720       0.32759155
H        0.07893194      -2.27968484      -0.08732966
13
Frame=12 idx=002100 GeodesicLength=1.3588070840018203 rxn_smarts="[C:1]([c:2]1[c:3]([H:10])[c:4]([H:11])[c:5]([H:12])[n:6]1[H:13])([H:7])([H:8])[H:9]>>[C:1]([C:3](=[C:2]=[N:6][H:13])[H:10])([H:7])([H:8])[H:9].[C:4](#[C:5][H:12])[H:11]"
C        2.08083989       0.19902210      -0.19029641
C        0.46071995      -0.41093387       0.24624646
C        0.29777620       0.91586042       0.27649473
C       -2.44276167       0.88904729      -0.23133023
C       -2.31170646      -0.36802207      -0.23820555
N       -0.34084851      -1.33925202      -0.13779283
H        2.78456561      -0.29870840       0.48270187
H        2.23212771      -0.23087211      -1.18130804
H        2.46268943       1.21741800      -0.27753231
H        0.49489271       1.44799806       1.20434120
H       -3.28951267       1.55001027      -0.18639045
H       -2.44754108      -1.29106516       0.29070092
H        0.01875889      -2.28050251      -0.05762937
13
Frame=13 idx=002100 GeodesicLength=1.4719549022467946 rxn_smarts="[C:1]([c:2]1[c:3]([H:10])[c:4]([H:11])[c:5]([H:12])[n:6]1[H:13])([H:7])([H:8])[H:9]>>[C:1]([C:3](=[C:2]=[N:6][H:13])[H:10])([H:7])([H:8])[H:9].[C:4](#[C:5][H:12])[H:11]"
C        2.07641232       0.21939042      -0.20078728
C        0.45965459      -0.42032577       0.27217503
C        0.29738042       0.90510670       0.31557334
C       -2.39120548       0.88163267      -0.22259025
C       -2.28565566      -0.38318195      -0.26240047
N       -0.36784447      -1.32954418      -0.11012614
H        2.80702302      -0.26635708       0.45269327
H        2.20931885      -0.22070187      -1.19047730
H        2.45811871       1.23552972      -0.31157677
H        0.51071485       1.43513697       1.24071223
H       -3.24864244       1.53151468      -0.20510721
H       -2.48469359      -1.30642636       0.24578600
H       -0.04058112      -2.28177393      -0.02387446
13
Frame=14 idx=002100 GeodesicLength=1.5851158394489728 rxn_smarts="[C:1]([c:2]1[c:3]([H:10])[c:4]([H:11])[c:5]([H:12])[n:6]1[H:13])([H:7])([H:8])[H:9]>>[C:1]([C:3](=[C:2]=[N:6][H:13])[H:10])([H:7])([H:8])[H:9].[C:4](#[C:5][H:12])[H:11]"
C        2.07113003       0.24016840      -0.21177703
C        0.45917112      -0.43096120       0.29759237
C        0.29750332       0.89296579       0.35447010
C       -2.34106204       0.87384905      -0.21027161
C       -2.25844257      -0.39693110      -0.28770761
N       -0.39417375      -1.32162520      -0.07919667
H        2.82837601      -0.23219440       0.42158533
H        2.18628776      -0.21103395      -1.19922482
H        2.45100608       1.25399553      -0.34729898
H        0.52685595       1.42090482       1.27664717
H       -3.20682253       1.51428786      -0.22193476
H       -2.52026170      -1.31996684       0.19162466
H       -0.09956768      -2.28345875       0.01549186
13
Frame=15 idx=002100 GeodesicLength=1.6983367527239623 rxn_smarts="[C:1]([c:2]1[c:3]([H:10])[c:4]([H:11])[c:5]([H:12])[n:6]1[H:13])([H:7])([H:8])[H:9]>>[C:1]([C:3](=[C:2]=[N:6][H:13])[H:10])([H:7])([H:8])[H:9].[C:4](#[C:5][H:12])[H:11]"
C        2.06482235       0.26131337      -0.22332069
C        0.45917569      -0.44278374       0.32249365
C        0.29820295       0.87949844       0.39330936
C       -2.29233564       0.86534141      -0.19473391
C       -2.22972902      -0.40937382      -0.31438502
N       -0.42011299      -1.31521893      -0.04505726
H        2.84837831      -0.19638146       0.38921290
H        2.16283289      -0.20182834      -1.20763802
H        2.44119743       1.27268814      -0.38460064
H        0.54351817       1.40524169       1.31230374
H       -3.16400064       1.49800726      -0.23667491
H       -2.55321069      -1.33126891       0.12814250
H       -0.15873881      -2.28523510       0.06094829
13
Frame=16 idx=002100 GeodesicLength=1.811650686265682 rxn_smarts="[C:1]([c:2]1[c:3]([H:10])[c:4]([H:11])[c:5]([H:12])[n:6]1[H:13])([H:7])([H:8])[H:9]>>[C:1]([C:3](=[C:2]=[N:6][H:13])[H:10])([H:7])([H:8])[H:9].[C:4](#[C:5][H:12])[H:11]"
C        2.05738375       0.28266283      -0.23541744
C        0.45953845      -0.45565644       0.34694816
C        0.29956197       0.86488918       0.43189835
C       -2.24527320       0.85574692      -0.17558061
C       -2.19910671      -0.42048561      -0.34265283
N       -0.44596642      -1.30992452      -0.00764899
H        2.86675930      -0.15916074       0.35561783
H        2.13889082      -0.19334001      -1.21566402
H        2.42871087       1.29130985      -0.42345979
H        0.56085265       1.38846897       1.34739449
H       -3.12042844       1.48228687      -0.24885061
H       -2.58226792      -1.34020417       0.05450398
H       -0.21865512      -2.28659313       0.11291146
