12
Frame=0 idx=004850 GeodesicLength=0.0 rxn_smarts="[C:1]([C:2]([C:3](=[O:4])[C:5](=[O:6])[H:12])([H:10])[H:11])([H:7])([H:8])[H:9]>>[C:1]([C:2]([C:3](=[O:4])[O+:6]=[C-:5][H:12])([H:10])[H:11])([H:7])([H:8])[H:9]"
C       -1.49724252       0.01463911       0.63300202
C       -0.11452927      -0.60149296       0.47074190
C        0.47511929      -0.25494482      -0.86481276
O        0.01949080      -0.42222804      -1.94607513
C        1.69263795       1.08153133      -0.61922568
O        2.04143971      -0.12732665      -0.76048675
H       -1.43318977       1.10368225       0.62967450
H       -2.15465764      -0.29085174      -0.18064224
H       -1.94304585      -0.30336919       1.57577088
H       -0.18028634      -1.69432252       0.48664697
H        0.55370474      -0.29481121       1.27243265
H        2.54055888       1.78949444      -0.69702640
12
Frame=1 idx=004850 GeodesicLength=0.30556183603959974 rxn_smarts="[C:1]([C:2]([C:3](=[O:4])[C:5](=[O:6])[H:12])([H:10])[H:11])([H:7])([H:8])[H:9]>>[C:1]([C:2]([C:3](=[O:4])[O+:6]=[C-:5][H:12])([H:10])[H:11])([H:7])([H:8])[H:9]"
C       -1.53916154      -0.02268677       0.64225556
C       -0.13009099      -0.57397079       0.46993589
C        0.47116467      -0.22315502      -0.86025460
O       -0.03426105      -0.34629860      -1.92508153
C        1.77178975       1.10169641      -0.76674521
O        2.05080985      -0.15762330      -0.75190856
H       -1.53623515       1.06779536       0.62397866
H       -2.19757503      -0.37878271      -0.14974116
H       -1.95225720      -0.34721007       1.59866486
H       -0.15990361      -1.66865124       0.49905522
H        0.51908883      -0.21639199       1.26679206
H        2.73663147       1.76527871      -0.64695119
12
Frame=2 idx=004850 GeodesicLength=0.6028719640177835 rxn_smarts="[C:1]([C:2]([C:3](=[O:4])[C:5](=[O:6])[H:12])([H:10])[H:11])([H:7])([H:8])[H:9]>>[C:1]([C:2]([C:3](=[O:4])[O+:6]=[C-:5][H:12])([H:10])[H:11])([H:7])([H:8])[H:9]"
C       -1.57630495      -0.05712819       0.65151682
C       -0.14480682      -0.54542837       0.46902859
C        0.47071544      -0.18673777      -0.85418661
O       -0.08186441      -0.26411021      -1.89990220
C        1.86763373       1.09368596      -0.93170922
O        2.06207219      -0.18958924      -0.74408298
H       -1.63268569       1.03134453       0.62016534
H       -2.23152098      -0.46121713      -0.11988619
H       -1.95826431      -0.38543668       1.62049385
H       -0.14094595      -1.64068804       0.50930623
H        0.48323729      -0.13976829       1.26052421
H        2.88273448       1.74507344      -0.58126785
12
Frame=3 idx=004850 GeodesicLength=0.8873424304698282 rxn_smarts="[C:1]([C:2]([C:3](=[O:4])[C:5](=[O:6])[H:12])([H:10])[H:11])([H:7])([H:8])[H:9]>>[C:1]([C:2]([C:3](=[O:4])[O+:6]=[C-:5][H:12])([H:10])[H:11])([H:7])([H:8])[H:9]"
C       -1.60671359      -0.08476398       0.65996781
C       -0.15966182      -0.52515193       0.47061410
C        0.47902630      -0.15214319      -0.83995664
O       -0.11378391      -0.17898038      -1.86651969
C        1.97453276       1.05006214      -1.10245976
O        2.07981754      -0.21930447      -0.72471565
H       -1.70760726       1.00024617       0.62667907
H       -2.25633217      -0.51921290      -0.09965448
H       -1.96826234      -0.41960542       1.63541724
H       -0.13460009      -1.62056419       0.51222243
H        0.44636441      -0.08733596       1.26294252
H        2.96722017       1.75675410      -0.53453695
12
Frame=4 idx=004850 GeodesicLength=1.1550535095098275 rxn_smarts="[C:1]([C:2]([C:3](=[O:4])[C:5](=[O:6])[H:12])([H:10])[H:11])([H:7])([H:8])[H:9]>>[C:1]([C:2]([C:3](=[O:4])[O+:6]=[C-:5][H:12])([H:10])[H:11])([H:7])([H:8])[H:9]"
C       -1.63144428      -0.10394227       0.66658200
C       -0.17581723      -0.52023531       0.47793072
C        0.49867204      -0.12270877      -0.81023264
O       -0.12357726      -0.09383541      -1.82025161
C        2.08567330       0.96786288      -1.26521571
O        2.10779511      -0.23792088      -0.68300892
H       -1.75309553       0.97926605       0.65119018
H       -2.27514151      -0.53809090      -0.09833835
H       -1.99227459      -0.45634491       1.63683448
H       -0.14761920      -1.61642131       0.50413392
H        0.40797301      -0.07711064       1.28454825
H        2.99885614       1.81948147      -0.54417232
12
Frame=5 idx=004850 GeodesicLength=1.4009096461457964 rxn_smarts="[C:1]([C:2]([C:3](=[O:4])[C:5](=[O:6])[H:12])([H:10])[H:11])([H:7])([H:8])[H:9]>>[C:1]([C:2]([C:3](=[O:4])[O+:6]=[C-:5][H:12])([H:10])[H:11])([H:7])([H:8])[H:9]"
C       -1.65552023      -0.11991955       0.67040130
C       -0.19438078      -0.52808812       0.49379426
C        0.52621886      -0.09132787      -0.75959011
O       -0.11337039      -0.00088219      -1.75671678
C        2.19381510       0.85455189      -1.40205797
O        2.14460615      -0.23346199      -0.61873744
H       -1.78108627       0.96275285       0.69357254
H       -2.28923193      -0.52476214      -0.11871435
H       -2.03733421      -0.50516309       1.62040795
H       -0.17386954      -1.62498639       0.48636288
H        0.36340353      -0.10582521       1.32979064
H        3.01674971       1.91711182      -0.63851291
12
Frame=6 idx=004850 GeodesicLength=1.6150227962879393 rxn_smarts="[C:1]([C:2]([C:3](=[O:4])[C:5](=[O:6])[H:12])([H:10])[H:11])([H:7])([H:8])[H:9]>>[C:1]([C:2]([C:3](=[O:4])[O+:6]=[C-:5][H:12])([H:10])[H:11])([H:7])([H:8])[H:9]"
C       -1.67973546      -0.13638285       0.67127481
C       -0.21344622      -0.54174904       0.51654340
C        0.55422732      -0.05490350      -0.69330421
O       -0.09266393       0.09581780      -1.68025763
C        2.28669212       0.73146562      -1.50115376
O        2.18419887      -0.20027995      -0.54915955
H       -1.80323615       0.94436994       0.74588280
H       -2.29664257      -0.49303279      -0.15387349
H       -2.09802081      -0.56503792       1.58682605
H       -0.20053668      -1.63777245       0.46581319
H        0.31364341      -0.15651764       1.38954074
H        3.04552011       2.01402277      -0.79813234
12
Frame=7 idx=004850 GeodesicLength=1.7889684580213732 rxn_smarts="[C:1]([C:2]([C:3](=[O:4])[C:5](=[O:6])[H:12])([H:10])[H:11])([H:7])([H:8])[H:9]>>[C:1]([C:2]([C:3](=[O:4])[O+:6]=[C-:5][H:12])([H:10])[H:11])([H:7])([H:8])[H:9]"
C       -1.70346029      -0.15624901       0.67061035
C       -0.23027529      -0.55194461       0.54075150
C        0.57150831      -0.01440545      -0.62818916
O       -0.07918780       0.17959203      -1.60669826
C        2.35083248       0.63227471      -1.56540158
O        2.21505047      -0.13938441      -0.49927246
H       -1.83052040       0.91997357       0.79275548
H       -2.29941711      -0.46614444      -0.18856220
H       -2.15854580      -0.62708125       1.54688874
H       -0.21404803      -1.64580317       0.45385404
H        0.26538964      -0.20124739       1.44614047
H        3.11267382       2.07041943      -0.96287693
12
Frame=8 idx=004850 GeodesicLength=1.920206554186874 rxn_smarts="[C:1]([C:2]([C:3](=[O:4])[C:5](=[O:6])[H:12])([H:10])[H:11])([H:7])([H:8])[H:9]>>[C:1]([C:2]([C:3](=[O:4])[O+:6]=[C-:5][H:12])([H:10])[H:11])([H:7])([H:8])[H:9]"
C       -1.71724727      -0.16900109       0.67225025
C       -0.24030220      -0.55990311       0.55472558
C        0.56615569      -0.00700113      -0.60614381
O       -0.09603207       0.17481075      -1.58082422
C        2.36261369       0.62868220      -1.60131841
O        2.22398952      -0.07710645      -0.51442358
H       -1.84381317       0.90634960       0.80463699
H       -2.30751104      -0.46061103      -0.19761040
H       -2.19327692      -0.64927285       1.53180364
H       -0.21634922      -1.65390132       0.47112721
H        0.24142914      -0.21641322       1.47047433
H        3.22034384       2.08336766      -1.00469760
12
Frame=9 idx=004850 GeodesicLength=2.045835123198118 rxn_smarts="[C:1]([C:2]([C:3](=[O:4])[C:5](=[O:6])[H:12])([H:10])[H:11])([H:7])([H:8])[H:9]>>[C:1]([C:2]([C:3](=[O:4])[O+:6]=[C-:5][H:12])([H:10])[H:11])([H:7])([H:8])[H:9]"
C       -1.72584053      -0.18234941       0.67641059
C       -0.24680732      -0.56806084       0.55560793
C        0.53085495      -0.04645985      -0.63949975
O       -0.15202907       0.06041878      -1.61166271
C        2.25594263       0.80680118      -1.58772397
O        2.19916929      -0.00396464      -0.59090425
H       -1.85165637       0.89825830       0.76136649
H       -2.33015112      -0.50715434      -0.17188140
H       -2.19655893      -0.62217621       1.55982556
H       -0.20656582      -1.66352028       0.52441242
H        0.24114275      -0.19247565       1.45562870
H        3.48249955       2.02068298      -0.93157962
12
Frame=10 idx=004850 GeodesicLength=2.164293332725216 rxn_smarts="[C:1]([C:2]([C:3](=[O:4])[C:5](=[O:6])[H:12])([H:10])[H:11])([H:7])([H:8])[H:9]>>[C:1]([C:2]([C:3](=[O:4])[O+:6]=[C-:5][H:12])([H:10])[H:11])([H:7])([H:8])[H:9]"
C       -1.76906546      -0.24702764       0.66533472
C       -0.27275497      -0.56640283       0.57151453
C        0.50754264       0.03482793      -0.58313408
O       -0.15222840       0.12248657      -1.57536475
C        2.19279060       1.02113433      -1.47441311
O        2.16426791       0.24273473      -0.42137556
H       -1.93868284       0.82682651       0.76376454
H       -2.34343723      -0.57880345      -0.20027703
H       -2.24217064      -0.71362103       1.53341491
H       -0.17308267      -1.65651573       0.51489807
H        0.17304406      -0.21123684       1.50220540
H        3.85377699       1.72559744      -1.29656765
12
Frame=11 idx=004850 GeodesicLength=2.327694846468277 rxn_smarts="[C:1]([C:2]([C:3](=[O:4])[C:5](=[O:6])[H:12])([H:10])[H:11])([H:7])([H:8])[H:9]>>[C:1]([C:2]([C:3](=[O:4])[O+:6]=[C-:5][H:12])([H:10])[H:11])([H:7])([H:8])[H:9]"
C       -1.79651697      -0.34666541       0.63437731
C       -0.27278132      -0.50283993       0.58714383
C        0.47629218       0.26721102      -0.48386058
O       -0.17280836       0.41731338      -1.47517964
C        2.27349909       0.96225872      -1.39761698
O        2.10683246       0.63874563      -0.16232963
H       -2.08300544       0.69646951       0.78069413
H       -2.29729204      -0.68778294      -0.27271033
H       -2.24568076      -0.90715188       1.45797792
H       -0.04471152      -1.56735435       0.45754162
H        0.10036505      -0.18073428       1.56065108
H        3.95580764       1.21053050      -1.68668873
12
Frame=12 idx=004850 GeodesicLength=2.6358457607714403 rxn_smarts="[C:1]([C:2]([C:3](=[O:4])[C:5](=[O:6])[H:12])([H:10])[H:11])([H:7])([H:8])[H:9]>>[C:1]([C:2]([C:3](=[O:4])[O+:6]=[C-:5][H:12])([H:10])[H:11])([H:7])([H:8])[H:9]"
C       -1.76905412      -0.40749288       0.58092876
C       -0.23944026      -0.44406970       0.58539368
C        0.47476679       0.43156176      -0.42173182
O       -0.17074262       0.66555409      -1.39989835
C        2.29142481       0.95904861      -1.25459451
O        2.08153556       0.86410257       0.03487438
H       -2.14225418       0.60558348       0.73996006
H       -2.20170124      -0.76614362      -0.35363595
H       -2.19470684      -1.02041575       1.37904053
H        0.09135293      -1.47527806       0.42085160
H        0.08167513      -0.13735615       1.58292001
H        3.69714404       0.72490566      -1.89410841
12
Frame=13 idx=004850 GeodesicLength=2.975129502382136 rxn_smarts="[C:1]([C:2]([C:3](=[O:4])[C:5](=[O:6])[H:12])([H:10])[H:11])([H:7])([H:8])[H:9]>>[C:1]([C:2]([C:3](=[O:4])[O+:6]=[C-:5][H:12])([H:10])[H:11])([H:7])([H:8])[H:9]"
C       -1.73013507      -0.44131040       0.53156760
C       -0.20370419      -0.39892820       0.57744751
C        0.46640442       0.54990087      -0.38627430
O       -0.17112778       0.85382777      -1.35080372
C        2.32381347       0.80032921      -1.10113320
O        2.06253627       1.02793399       0.16251228
H       -2.16107645       0.54904404       0.68738911
H       -2.10971720      -0.81079162      -0.42150294
H       -2.13749036      -1.08395056       1.31470833
H        0.20356495      -1.39859292       0.39715969
H        0.09221449      -0.10511904       1.58692817
H        3.36471746       0.45765688      -1.99799854
12
Frame=14 idx=004850 GeodesicLength=3.3359962191753287 rxn_smarts="[C:1]([C:2]([C:3](=[O:4])[C:5](=[O:6])[H:12])([H:10])[H:11])([H:7])([H:8])[H:9]>>[C:1]([C:2]([C:3](=[O:4])[O+:6]=[C-:5][H:12])([H:10])[H:11])([H:7])([H:8])[H:9]"
C       -1.69830491      -0.44940855       0.50896197
C       -0.17629956      -0.37390393       0.55426001
C        0.44610294       0.59898831      -0.41023245
O       -0.19170647       0.96852390      -1.35062960
C        2.31310301       0.55420439      -0.96732404
O        2.04738337       1.10179080       0.17334663
H       -2.15087654       0.53186936       0.65890521
H       -2.06003141      -0.82951352      -0.44665896
H       -2.08262796      -1.09990287       1.29647433
H        0.27078051      -1.35594749       0.37579247
H        0.13593919      -0.07914812       1.55894116
H        3.14653781       0.43244771      -1.95183673
12
Frame=15 idx=004850 GeodesicLength=3.744300492499257 rxn_smarts="[C:1]([C:2]([C:3](=[O:4])[C:5](=[O:6])[H:12])([H:10])[H:11])([H:7])([H:8])[H:9]>>[C:1]([C:2]([C:3](=[O:4])[O+:6]=[C-:5][H:12])([H:10])[H:11])([H:7])([H:8])[H:9]"
C       -1.66976160      -0.44733758       0.50107436
C       -0.15095058      -0.36145278       0.52035295
C        0.42425152       0.60301058      -0.47539005
O       -0.22588733       1.05722184      -1.36822909
C        2.26758355       0.33163978      -0.85412736
O        2.04105943       1.12684725       0.10838545
H       -2.12551295       0.53223353       0.65004134
H       -2.03482899      -0.83521970      -0.45000512
H       -2.02743670      -1.09945414       1.29892832
H        0.31393612      -1.33649663       0.35241033
H        0.20034476      -0.05575758       1.50917150
H        2.98720276       0.48476543      -1.79261264
12
Frame=16 idx=004850 GeodesicLength=4.181516499357396 rxn_smarts="[C:1]([C:2]([C:3](=[O:4])[C:5](=[O:6])[H:12])([H:10])[H:11])([H:7])([H:8])[H:9]>>[C:1]([C:2]([C:3](=[O:4])[O+:6]=[C-:5][H:12])([H:10])[H:11])([H:7])([H:8])[H:9]"
C       -1.63880477      -0.45068202       0.49109703
C       -0.12439939      -0.34327912       0.48754338
C        0.40016205       0.60929622      -0.54323187
O       -0.26721727       1.16761271      -1.36162600
C        2.20201891       0.18238529      -0.74354323
O        2.04259099       1.15286818       0.01746649
H       -2.10400329       0.52187865       0.65289999
H       -2.00402164      -0.83506191      -0.46130632
H       -1.96615931      -1.12165938       1.28546103
H        0.35860936      -1.31099962       0.33023203
H        0.26615664      -0.02478069       1.45767895
H        2.83506772       0.45242169      -1.61267148
