13
Frame=0 idx=003407 GeodesicLength=0.0 rxn_smarts="[N:1](=[C:2](/[O:3][C:4]1([H:9])[C:5]([H:10])([H:11])[C:6]1([H:12])[H:13])[H:8])\[H:7]>>[N:1](=[C:2](/[C:5]([C:6]([C:4](=[O:3])[H:9])([H:12])[H:13])([H:10])[H:11])[H:8])\[H:7]"
N        2.01125046       0.63755342       0.45496819
C        1.32644956      -0.24451172      -0.14890495
O        0.68952186       0.19801538      -1.36590783
C       -0.57033132       0.38856811      -1.21254113
C       -0.64386363      -0.67437245       0.71444198
C       -1.22071820       0.55278192       0.10330378
H        2.64209400       0.20847486       1.12284629
H        1.50831924      -1.30624807      -0.28293534
H       -1.12031913       0.36366329      -2.15497622
H       -1.18429030      -1.58963074       0.49829538
H       -0.24483746      -0.60881681       1.71608780
H       -0.88787303       1.47941944       0.57459046
H       -2.30540204       0.59510337      -0.01926842
13
Frame=1 idx=003407 GeodesicLength=0.09665376791577981 rxn_smarts="[N:1](=[C:2](/[O:3][C:4]1([H:9])[C:5]([H:10])([H:11])[C:6]1([H:12])[H:13])[H:8])\[H:7]>>[N:1](=[C:2](/[C:5]([C:6]([C:4](=[O:3])[H:9])([H:12])[H:13])([H:10])[H:11])[H:8])\[H:7]"
N        2.03310763       0.62237675       0.49048400
C        1.33124548      -0.23094685      -0.13380667
O        0.68890707       0.25024809      -1.36550892
C       -0.57858702       0.38593167      -1.20989900
C       -0.64231508      -0.66351060       0.70098178
C       -1.23364593       0.56478309       0.10186822
H        2.68581528       0.16403934       1.11675760
H        1.50887460      -1.28941157      -0.30146029
H       -1.13458431       0.28797881      -2.14453692
H       -1.17629227      -1.58287253       0.48496256
H       -0.26174936      -0.59711072       1.71009852
H       -0.90230791       1.49342133       0.56904350
H       -2.31846820       0.59507321      -0.01898438
13
Frame=2 idx=003407 GeodesicLength=0.19328282072815356 rxn_smarts="[N:1](=[C:2](/[O:3][C:4]1([H:9])[C:5]([H:10])([H:11])[C:6]1([H:12])[H:13])[H:8])\[H:7]>>[N:1](=[C:2](/[C:5]([C:6]([C:4](=[O:3])[H:9])([H:12])[H:13])([H:10])[H:11])[H:8])\[H:7]"
N        2.05508726       0.60536851       0.52485587
C        1.33571132      -0.21817749      -0.11828752
O        0.68645607       0.30218380      -1.36410521
C       -0.58644661       0.38309946      -1.20705230
C       -0.64085780      -0.65217156       0.68856848
C       -1.24747510       0.57591510       0.09996440
H        2.72886421       0.11980119       1.10690536
H        1.50902337      -1.27228087      -0.31969290
H       -1.14298813       0.21638831      -2.13207451
H       -1.16774514      -1.57610918       0.47336099
H       -0.27848765      -0.58409317       1.70461821
H       -0.91891163       1.50704193       0.56295535
H       -2.33223015       0.59303398      -0.02001623
13
Frame=3 idx=003407 GeodesicLength=0.2898063939433335 rxn_smarts="[N:1](=[C:2](/[O:3][C:4]1([H:9])[C:5]([H:10])([H:11])[C:6]1([H:12])[H:13])[H:8])\[H:7]>>[N:1](=[C:2](/[C:5]([C:6]([C:4](=[O:3])[H:9])([H:12])[H:13])([H:10])[H:11])[H:8])\[H:7]"
N        2.07719078       0.58664508       0.55785992
C        1.33997832      -0.20629053      -0.10243626
O        0.68222778       0.35338717      -1.36198206
C       -0.59384096       0.38017788      -1.20400497
C       -0.63940045      -0.64043818       0.67709909
C       -1.26195689       0.58626198       0.09766983
H        2.77042579       0.07613347       1.09406610
H        1.50891618      -1.25496171      -0.33749714
H       -1.14634335       0.14885650      -2.11795003
H       -1.15867434      -1.56931064       0.46328732
H       -0.29489318      -0.57000143       1.69955432
H       -0.93720830       1.52025660       0.55642682
H       -2.34642136       0.58928383      -0.02209294
13
Frame=4 idx=003407 GeodesicLength=0.3861849080996014 rxn_smarts="[N:1](=[C:2](/[O:3][C:4]1([H:9])[C:5]([H:10])([H:11])[C:6]1([H:12])[H:13])[H:8])\[H:7]>>[N:1](=[C:2](/[C:5]([C:6]([C:4](=[O:3])[H:9])([H:12])[H:13])([H:10])[H:11])[H:8])\[H:7]"
N        2.09937602       0.56636295       0.58939539
C        1.34415595      -0.19533399      -0.08630420
O        0.67632957       0.40354684      -1.35942804
C       -0.60073636       0.37720718      -1.20078521
C       -0.63789179      -0.62839245       0.66646417
C       -1.27688840       0.59589354       0.09504153
H        2.81007952       0.03331566       1.07891925
H        1.50868632      -1.23753293      -0.35477470
H       -1.14544315       0.08530609      -2.10244417
H       -1.14914255      -1.56246469       0.45454589
H       -0.31090152      -0.55504549       1.69483134
H       -0.95679159       1.53305419       0.54952031
H       -2.36083201       0.58408310      -0.02498153
13
Frame=5 idx=003407 GeodesicLength=0.4823866789174317 rxn_smarts="[N:1](=[C:2](/[O:3][C:4]1([H:9])[C:5]([H:10])([H:11])[C:6]1([H:12])[H:13])[H:8])\[H:7]>>[N:1](=[C:2](/[C:5]([C:6]([C:4](=[O:3])[H:9])([H:12])[H:13])([H:10])[H:11])[H:8])\[H:7]"
N        2.12117705       0.54454340       0.62022449
C        1.34815967      -0.18540032      -0.06939418
O        0.66897506       0.45254739      -1.35622977
C       -0.60703551       0.37419616      -1.19731017
C       -0.63657497      -0.61613942       0.65660897
C       -1.29227445       0.60483337       0.09203922
H        2.84919964      -0.00822359       1.06011501
H        1.50832820      -1.22007337      -0.37099228
H       -1.14050364       0.02574885      -2.08592892
H       -1.13944573      -1.55556845       0.44694030
H       -0.32699089      -0.53947217       1.69047230
H       -0.97760957       1.54535979       0.54226286
H       -2.37540487       0.57764837      -0.02880782
13
Frame=6 idx=003407 GeodesicLength=0.5783793136795625 rxn_smarts="[N:1](=[C:2](/[O:3][C:4]1([H:9])[C:5]([H:10])([H:11])[C:6]1([H:12])[H:13])[H:8])\[H:7]>>[N:1](=[C:2](/[C:5]([C:6]([C:4](=[O:3])[H:9])([H:12])[H:13])([H:10])[H:11])[H:8])\[H:7]"
N        2.14275386       0.52137171       0.64995991
C        1.35216130      -0.17650821      -0.05200388
O        0.66025271       0.50007705      -1.35295767
C       -0.61277794       0.37118696      -1.19368198
C       -0.63526990      -0.60375415       0.64738471
C       -1.30782840       0.61317505       0.08876182
H        2.88662324      -0.04820910       1.03918792
H        1.50801698      -1.20266682      -0.38629997
H       -1.13252280      -0.03001124      -2.06848826
H       -1.12955390      -1.54861931       0.44025987
H       -0.34285348      -0.52350234       1.68633705
H       -0.99910670       1.55720277       0.53472910
H       -2.38989498       0.57025764      -0.03318861
13
Frame=7 idx=003407 GeodesicLength=0.6741701206644806 rxn_smarts="[N:1](=[C:2](/[O:3][C:4]1([H:9])[C:5]([H:10])([H:11])[C:6]1([H:12])[H:13])[H:8])\[H:7]>>[N:1](=[C:2](/[C:5]([C:6]([C:4](=[O:3])[H:9])([H:12])[H:13])([H:10])[H:11])[H:8])\[H:7]"
N        2.16395740       0.49680091       0.67899482
C        1.35614466      -0.16868991      -0.03393986
O        0.65032502       0.54615916      -1.34964983
C       -0.61793734       0.36821511      -1.18989096
C       -0.63404491      -0.59127828       0.63872194
C       -1.32349334       0.62097150       0.08519883
H        2.92280741      -0.08640711       1.01579846
H        1.50775040      -1.18534395      -0.40053186
H       -1.12187124      -0.08220848      -2.05027151
H       -1.11958723      -1.54159658       0.43436565
H       -0.35866550      -0.50727854       1.68239842
H       -1.02115961       1.56858071       0.52692737
H       -2.40422571       0.56207546      -0.03812145
13
Frame=8 idx=003407 GeodesicLength=0.7697529803261103 rxn_smarts="[N:1](=[C:2](/[O:3][C:4]1([H:9])[C:5]([H:10])([H:11])[C:6]1([H:12])[H:13])[H:8])\[H:7]>>[N:1](=[C:2](/[C:5]([C:6]([C:4](=[O:3])[H:9])([H:12])[H:13])([H:10])[H:11])[H:8])\[H:7]"
N        2.18481384       0.47084785       0.70733543
C        1.36017472      -0.16194826      -0.01528496
O        0.63926084       0.59084340      -1.34654444
C       -0.62255999       0.36525762      -1.18597806
C       -0.63281760      -0.57872957       0.63055709
C       -1.33915810       0.62826542       0.08138131
H        2.95746057      -0.12277262       0.99054855
H        1.50759752      -1.16810025      -0.41382737
H       -1.10904871      -0.13105753      -2.03142507
H       -1.10954020      -1.53448597       0.42921758
H       -0.37433242      -0.49085805       1.67860874
H       -1.04355158       1.57951784       0.51885020
H       -2.41829888       0.55322012      -0.04343901
13
Frame=9 idx=003407 GeodesicLength=0.8651271380793835 rxn_smarts="[N:1](=[C:2](/[O:3][C:4]1([H:9])[C:5]([H:10])([H:11])[C:6]1([H:12])[H:13])[H:8])\[H:7]>>[N:1](=[C:2](/[C:5]([C:6]([C:4](=[O:3])[H:9])([H:12])[H:13])([H:10])[H:11])[H:8])\[H:7]"
N        2.20522408       0.44340556       0.73523168
C        1.36425080      -0.15633938       0.00403877
O        0.62714141       0.63420591      -1.34371531
C       -0.62665486       0.36230417      -1.18194237
C       -0.63159280      -0.56612780       0.62284332
C       -1.35476297       0.63509636       0.07730919
H        2.99076977      -0.15710457       0.96340419
H        1.50757730      -1.15094972      -0.42618517
H       -1.09434977      -0.17675418      -2.01207766
H       -1.09947743      -1.52726274       0.42476598
H       -0.38991592      -0.47431178       1.67494076
H       -1.06615980       1.59002057       0.51048438
H       -2.43204980       0.54381760      -0.04909774
13
Frame=10 idx=003407 GeodesicLength=0.9602891777970091 rxn_smarts="[N:1](=[C:2](/[O:3][C:4]1([H:9])[C:5]([H:10])([H:11])[C:6]1([H:12])[H:13])[H:8])\[H:7]>>[N:1](=[C:2](/[C:5]([C:6]([C:4](=[O:3])[H:9])([H:12])[H:13])([H:10])[H:11])[H:8])\[H:7]"
N        2.22529034       0.41455067       0.76251124
C        1.36844514      -0.15180158       0.02386532
O        0.61396345       0.67627992      -1.34150184
C       -0.63029502       0.35936337      -1.17784256
C       -0.63024117      -0.55348012       0.61549796
C       -1.37019437       0.64150476       0.07302568
H        3.02226929      -0.18951456       0.93529955
H        1.50775995      -1.13382074      -0.43778204
H       -1.07829753      -0.21952723      -1.99226414
H       -1.08931090      -1.51992173       0.42093755
H       -0.40522104      -0.45769620       1.67131402
H       -1.08878116       1.60011864       0.50183281
H       -2.44538698       0.53394479      -0.05489357
13
Frame=11 idx=003407 GeodesicLength=1.0552480724268882 rxn_smarts="[N:1](=[C:2](/[O:3][C:4]1([H:9])[C:5]([H:10])([H:11])[C:6]1([H:12])[H:13])[H:8])\[H:7]>>[N:1](=[C:2](/[C:5]([C:6]([C:4](=[O:3])[H:9])([H:12])[H:13])([H:10])[H:11])[H:8])\[H:7]"
N        2.24501196       0.38424331       0.78924453
C        1.37278232      -0.14831265       0.04417021
O        0.59972953       0.71717750      -1.34006746
C       -0.63352621       0.35643546      -1.17370345
C       -0.62871528      -0.54077657       0.60847759
C       -1.38541263       0.64751890       0.06854500
H        3.05196039      -0.22006745       0.90655577
H        1.50817648      -1.11664182      -0.44870888
H       -1.06116488      -0.25959599      -1.97206671
H       -1.07902009      -1.51244393       0.41770611
H       -0.42020302      -0.44102291       1.66769906
H       -1.11133984       1.60983418       0.49288664
H       -2.45827874       0.52365196      -0.06073843
13
Frame=12 idx=003407 GeodesicLength=1.1500369626744753 rxn_smarts="[N:1](=[C:2](/[O:3][C:4]1([H:9])[C:5]([H:10])([H:11])[C:6]1([H:12])[H:13])[H:8])\[H:7]>>[N:1](=[C:2](/[C:5]([C:6]([C:4](=[O:3])[H:9])([H:12])[H:13])([H:10])[H:11])[H:8])\[H:7]"
N        2.26452311       0.35259642       0.81526188
C        1.37734244      -0.14572585       0.06478661
O        0.58434672       0.75710142      -1.33967087
C       -0.63643908       0.35352014      -1.16957639
C       -0.62687823      -0.52795779       0.60174324
C       -1.40040293       0.65314621       0.06389482
H        3.07952507      -0.24932247       0.87802156
H        1.50890587      -1.09919990      -0.45923234
H       -1.04324945      -0.29723606      -1.95152964
H       -1.06844545      -1.50480506       0.41509660
H       -0.43466865      -0.42419497       1.66406256
H       -1.13383527       1.61920719       0.48362233
H       -2.47072414       0.51287072      -0.06648037
13
Frame=13 idx=003407 GeodesicLength=1.2446415095948902 rxn_smarts="[N:1](=[C:2](/[O:3][C:4]1([H:9])[C:5]([H:10])([H:11])[C:6]1([H:12])[H:13])[H:8])\[H:7]>>[N:1](=[C:2](/[C:5]([C:6]([C:4](=[O:3])[H:9])([H:12])[H:13])([H:10])[H:11])[H:8])\[H:7]"
N        2.28335303       0.31891787       0.84138139
C        1.38195193      -0.14448061       0.08614618
O        0.56798439       0.79598967      -1.34007796
C       -0.63890051       0.35060820      -1.16537910
C       -0.62497686      -0.51512609       0.59528051
C       -1.41509972       0.65846795       0.05902657
H        3.10609144      -0.27582548       0.84818573
H        1.50982638      -1.08177653      -0.46900672
H       -1.02444817      -0.33249623      -1.93072475
H       -1.05799363      -1.49697569       0.41300318
H       -0.44907351      -0.40745641       1.66042100
H       -1.15607996       1.62820925       0.47405529
H       -2.48263481       0.50194409      -0.07231132
13
Frame=14 idx=003407 GeodesicLength=1.3391665598539266 rxn_smarts="[N:1](=[C:2](/[O:3][C:4]1([H:9])[C:5]([H:10])([H:11])[C:6]1([H:12])[H:13])[H:8])\[H:7]>>[N:1](=[C:2](/[C:5]([C:6]([C:4](=[O:3])[H:9])([H:12])[H:13])([H:10])[H:11])[H:8])\[H:7]"
N        2.30169782       0.28283683       0.86781145
C        1.38665642      -0.14460173       0.10837389
O        0.55072835       0.83399043      -1.34133405
C       -0.64085979       0.34770682      -1.16110884
C       -0.62304047      -0.50222810       0.58911492
C       -1.42956327       0.66350374       0.05392869
H        3.13179970      -0.29945205       0.81684698
H        1.51093181      -1.06428548      -0.47807305
H       -1.00486743      -0.36555326      -1.90972070
H       -1.04770094      -1.48894482       0.41143804
H       -0.46349732      -0.39068975       1.65683308
H       -1.17818856       1.63691002       0.46418402
H       -2.49409631       0.49080735      -0.07829443
13
Frame=15 idx=003407 GeodesicLength=1.4335381360371255 rxn_smarts="[N:1](=[C:2](/[O:3][C:4]1([H:9])[C:5]([H:10])([H:11])[C:6]1([H:12])[H:13])[H:8])\[H:7]>>[N:1](=[C:2](/[C:5]([C:6]([C:4](=[O:3])[H:9])([H:12])[H:13])([H:10])[H:11])[H:8])\[H:7]"
N        2.31968916       0.24483685       0.89377308
C        1.39158018      -0.14581975       0.13094506
O        0.53220623       0.87124306      -1.34402138
C       -0.64256147       0.34482283      -1.15687623
C       -0.62072949      -0.48921798       0.58313405
C       -1.44368846       0.66823771       0.04870254
H        3.15565993      -0.32126398       0.78621597
H        1.51241683      -1.04635526      -0.48692497
H       -0.98498497      -0.39661649      -1.88852275
H       -1.03718922      -1.48069967       0.41041475
H       -0.47736627      -0.37385705       1.65314957
H       -1.20000981       1.64530933       0.45401042
H       -2.50502263       0.47938040      -0.08400012
13
Frame=16 idx=003407 GeodesicLength=1.5278152042880575 rxn_smarts="[N:1](=[C:2](/[O:3][C:4]1([H:9])[C:5]([H:10])([H:11])[C:6]1([H:12])[H:13])[H:8])\[H:7]>>[N:1](=[C:2](/[C:5]([C:6]([C:4](=[O:3])[H:9])([H:12])[H:13])([H:10])[H:11])[H:8])\[H:7]"
N        2.33729019       0.20438783       0.91957154
C        1.39668080      -0.14827487       0.15407203
O        0.51242816       0.90784132      -1.34810602
C       -0.64393805       0.34197898      -1.15264767
C       -0.61810906      -0.47605820       0.57735723
C       -1.45750408       0.67269423       0.04331092
H        3.17809881      -0.34083691       0.75574093
H        1.51421352      -1.02793458      -0.49545587
H       -0.96474970      -0.42580407      -1.86714345
H       -1.02654165      -1.47218836       0.40993988
H       -0.49082648      -0.35690945       1.64940505
H       -1.22161760       1.65342767       0.44350368
H       -2.51542485       0.46767643      -0.08954825
