11
Frame=0 idx=009954 GeodesicLength=0.0 rxn_smarts="[C:1]([C:2](=[O:3])[C:4](=[O:5])[C:6](=[O:7])[H:11])([H:8])([H:9])[H:10]>>[C:1]1([H:8])([H:9])[C:2]2([O:3]1)[C:4](=[O:5])[C:6]([H:10])([H:11])[O:7]2"
C       -1.18642795       0.22235433      -0.51096101
C       -0.23416715      -0.87676458      -0.28939791
O       -0.79406116      -1.80096829      -0.88551805
C        0.62003120      -0.62072583       0.96937700
O        0.96849219      -1.26962829       1.89716631
C        1.02745564       0.68099956       0.28845931
O        1.18444672       0.05514005      -0.88053938
H       -2.14185507       0.19317877       0.00716913
H       -1.12338910       0.74570066      -1.46055365
H       -0.07265333       1.24995714       0.24690016
H        1.75212798       1.42075650       0.61789808
11
Frame=1 idx=009954 GeodesicLength=0.09739762687049927 rxn_smarts="[C:1]([C:2](=[O:3])[C:4](=[O:5])[C:6](=[O:7])[H:11])([H:8])([H:9])[H:10]>>[C:1]1([H:8])([H:9])[C:2]2([O:3]1)[C:4](=[O:5])[C:6]([H:10])([H:11])[O:7]2"
C       -1.19758602       0.21348799      -0.51147873
C       -0.22575726      -0.86975509      -0.29754487
O       -0.79096951      -1.78802995      -0.90065526
C        0.63083831      -0.62143820       0.95888897
O        0.93095356      -1.25030939       1.91638067
C        1.04606086       0.68330519       0.28592277
O        1.20125174       0.06748202      -0.88793325
H       -2.14101718       0.17699435       0.02783039
H       -1.15917573       0.73031349      -1.46577416
H       -0.08041639       1.25690751       0.24258299
H        1.78581762       1.40104207       0.63178048
11
Frame=2 idx=009954 GeodesicLength=0.1948335652507645 rxn_smarts="[C:1]([C:2](=[O:3])[C:4](=[O:5])[C:6](=[O:7])[H:11])([H:8])([H:9])[H:10]>>[C:1]1([H:8])([H:9])[C:2]2([O:3]1)[C:4](=[O:5])[C:6]([H:10])([H:11])[O:7]2"
C       -1.20890808       0.20439405      -0.51171772
C       -0.21726307      -0.86222529      -0.30592351
O       -0.78716523      -1.77487977      -0.91603860
C        0.64196977      -0.62250688       0.94833148
O        0.89140877      -1.22860626       1.93432747
C        1.06532929       0.68545170       0.28375232
O        1.21836289       0.08030283      -0.89523119
H       -2.13970912       0.16012853       0.04864591
H       -1.19595288       0.71434676      -1.47021506
H       -0.08854958       1.26387326       0.23848805
H        1.82047724       1.37972107       0.64558084
11
Frame=3 idx=009954 GeodesicLength=0.2923151109444033 rxn_smarts="[C:1]([C:2](=[O:3])[C:4](=[O:5])[C:6](=[O:7])[H:11])([H:8])([H:9])[H:10]>>[C:1]1([H:8])([H:9])[C:2]2([O:3]1)[C:4](=[O:5])[C:6]([H:10])([H:11])[O:7]2"
C       -1.22042352       0.19512855      -0.51179784
C       -0.20882168      -0.85410508      -0.31432941
O       -0.78274414      -1.76150178      -0.93145358
C        0.65300843      -0.62371945       0.93808390
O        0.85077026      -1.20489042       1.95038104
C        1.08519272       0.68743704       0.28211648
O        1.23581965       0.09343991      -0.90214943
H       -2.13804201       0.14277949       0.06933684
H       -1.23359479       0.69765620      -1.47404015
H       -0.09712534       1.27098849       0.23446285
H        1.85596042       1.35678705       0.65938929
11
Frame=4 idx=009954 GeodesicLength=0.38983621412351227 rxn_smarts="[C:1]([C:2](=[O:3])[C:4](=[O:5])[C:6](=[O:7])[H:11])([H:8])([H:9])[H:10]>>[C:1]1([H:8])([H:9])[C:2]2([O:3]1)[C:4](=[O:5])[C:6]([H:10])([H:11])[O:7]2"
C       -1.23217574       0.18576860      -0.51185801
C       -0.20058106      -0.84531751      -0.32256821
O       -0.77781056      -1.74789393      -0.94667292
C        0.66349077      -0.62479745       0.92851064
O        0.81011305      -1.17975052       1.96409106
C        1.10557574       0.68928863       0.28116039
O        1.25366032       0.10671822      -0.90842050
H       -2.13616532       0.12518775       0.08960615
H       -1.27198277       0.68010361      -1.47745167
H       -0.10622561       1.27843183       0.23029898
H        1.89210117       1.33226076       0.67330410
11
Frame=5 idx=009954 GeodesicLength=0.48734204098516076 rxn_smarts="[C:1]([C:2](=[O:3])[C:4](=[O:5])[C:6](=[O:7])[H:11])([H:8])([H:9])[H:10]>>[C:1]1([H:8])([H:9])[C:2]2([O:3]1)[C:4](=[O:5])[C:6]([H:10])([H:11])[O:7]2"
C       -1.24420374       0.17635388      -0.51200429
C       -0.19265070      -0.83574687      -0.33052230
O       -0.77246529      -1.73397585      -0.96151579
C        0.67308352      -0.62545113       0.91979433
O        0.77024363      -1.15371860       1.97525222
C        1.12645882       0.69102218       0.28097340
O        1.27192419       0.12002988      -0.91381658
H       -2.13419512       0.10750638       0.10921804
H       -1.31107070       0.66153269      -1.48055423
H       -0.11589250       1.28630185       0.22577731
H        1.92876787       1.30614558       0.68739789
11
Frame=6 idx=009954 GeodesicLength=0.5848720925832279 rxn_smarts="[C:1]([C:2](=[O:3])[C:4](=[O:5])[C:6](=[O:7])[H:11])([H:8])([H:9])[H:10]>>[C:1]1([H:8])([H:9])[C:2]2([O:3]1)[C:4](=[O:5])[C:6]([H:10])([H:11])[O:7]2"
C       -1.25654812       0.16694214      -0.51230445
C       -0.18507374      -0.82534531      -0.33816915
O       -0.76672780      -1.71977211      -0.97593201
C        0.68162133      -0.62555015       0.91201458
O        0.73166305      -1.12722794       1.98402686
C        1.14784901       0.69266616       0.28157771
O        1.29064635       0.13332135      -0.91831884
H       -2.13223028       0.08987395       0.12809550
H       -1.35086318       0.64189270      -1.48345448
H       -0.12619259       1.29474464       0.22076137
H        1.96585598       1.27845456       0.70170292
11
Frame=7 idx=009954 GeodesicLength=0.6824318382907921 rxn_smarts="[C:1]([C:2](=[O:3])[C:4](=[O:5])[C:6](=[O:7])[H:11])([H:8])([H:9])[H:10]>>[C:1]1([H:8])([H:9])[C:2]2([O:3]1)[C:4](=[O:5])[C:6]([H:10])([H:11])[O:7]2"
C       -1.26923520       0.15755014      -0.51278442
C       -0.17785273      -0.81404753      -0.34554375
O       -0.76059263      -1.70525269      -0.98993090
C        0.68907763      -0.62502394       0.90511674
O        0.69453569      -1.10049246       1.99066947
C        1.16979701       0.69421660       0.28296484
O        1.30985529       0.14660591      -0.92194949
H       -2.13031446       0.07233483       0.14623417
H       -1.39140155       0.62112660      -1.48615502
H       -0.13716944       1.30382619       0.21515887
H        2.00330040       1.24915636       0.71621949
11
Frame=8 idx=009954 GeodesicLength=0.7800536958120858 rxn_smarts="[C:1]([C:2](=[O:3])[C:4](=[O:5])[C:6](=[O:7])[H:11])([H:8])([H:9])[H:10]>>[C:1]1([H:8])([H:9])[C:2]2([O:3]1)[C:4](=[O:5])[C:6]([H:10])([H:11])[O:7]2"
C       -1.28229117       0.14816630      -0.51344700
C       -0.17097029      -0.80178352      -0.35271791
O       -0.75404681      -1.69036542      -1.00357925
C        0.69551252      -0.62384592       0.89898772
O        0.65881809      -1.07355783       1.99546237
C        1.19239029       0.69564686       0.28512372
O        1.32958193       0.15993290      -0.92476118
H       -2.12846429       0.05487247       0.16367948
H       -1.43275982       0.59916671      -1.48860585
H       -0.14885224       1.31357268       0.20891357
H        2.04108178       1.21819478       0.73094433
11
Frame=9 idx=009954 GeodesicLength=0.8776135417442126 rxn_smarts="[C:1]([C:2](=[O:3])[C:4](=[O:5])[C:6](=[O:7])[H:11])([H:8])([H:9])[H:10]>>[C:1]1([H:8])([H:9])[C:2]2([O:3]1)[C:4](=[O:5])[C:6]([H:10])([H:11])[O:7]2"
C       -1.29568348       0.13878525      -0.51426911
C       -0.16440846      -0.78847930      -0.35974378
O       -0.74706662      -1.67505507      -1.01689063
C        0.70097741      -0.62201123       0.89348650
O        0.62437165      -1.04643854       1.99857376
C        1.21569225       0.69691577       0.28801683
O        1.34981470       0.17336232      -0.92679146
H       -2.12660501       0.03746670       0.18048613
H       -1.47494124       0.57592212      -1.49070728
H       -0.16124997       1.32401171       0.20198868
H        2.07909878       1.18552026       0.74585034
11
Frame=10 idx=009954 GeodesicLength=0.9752194785367296 rxn_smarts="[C:1]([C:2](=[O:3])[C:4](=[O:5])[C:6](=[O:7])[H:11])([H:8])([H:9])[H:10]>>[C:1]1([H:8])([H:9])[C:2]2([O:3]1)[C:4](=[O:5])[C:6]([H:10])([H:11])[O:7]2"
C       -1.30945841       0.12938225      -0.51525453
C       -0.15814735      -0.77406317      -0.36669710
O       -0.73962126      -1.65926772      -1.02997041
C        0.70555701      -0.61952184       0.88851704
O        0.59111629      -1.01907109       2.00026718
C        1.23980341       0.69797708       0.29166138
O        1.37059188       0.18695959      -0.92810597
H       -2.12477896       0.02008430       0.19670373
H       -1.51801836       0.55132073      -1.49240431
H       -0.17442953       1.33517125       0.19435449
H        2.11738530       1.15102861       0.76092850
11
Frame=11 idx=009954 GeodesicLength=1.072835301225717 rxn_smarts="[C:1]([C:2](=[O:3])[C:4](=[O:5])[C:6](=[O:7])[H:11])([H:8])([H:9])[H:10]>>[C:1]1([H:8])([H:9])[C:2]2([O:3]1)[C:4](=[O:5])[C:6]([H:10])([H:11])[O:7]2"
C       -1.32361205       0.11993836      -0.51639101
C       -0.15217176      -0.75844838      -0.37362626
O       -0.73166752      -1.64293263      -1.04286465
C        0.70930838      -0.61637708       0.88397187
O        0.55893045      -0.99138425       2.00068823
C        1.26479620       0.69877284       0.29605660
O        1.39190867       0.20080227      -0.92873905
H       -2.12294882       0.00269351       0.21237664
H       -1.56199641       0.52525716      -1.49360549
H       -0.18845185       1.34708206       0.18598777
H        2.15590471       1.11459615       0.77614536
11
Frame=12 idx=009954 GeodesicLength=1.1704662610065157 rxn_smarts="[C:1]([C:2](=[O:3])[C:4](=[O:5])[C:6](=[O:7])[H:11])([H:8])([H:9])[H:10]>>[C:1]1([H:8])([H:9])[C:2]2([O:3]1)[C:4](=[O:5])[C:6]([H:10])([H:11])[O:7]2"
C       -1.33814820       0.11043245      -0.51766983
C       -0.14647195      -0.74154077      -0.38057775
O       -0.72316577      -1.62597477      -1.05562879
C        0.71228690      -0.61256998       0.87975819
O        0.52770116      -0.96328840       1.99996291
C        1.29075668       0.69923551       0.30121283
O        1.41377021       0.21497071      -0.92872457
H       -2.12109264      -0.01473902       0.22754502
H       -1.60687979       0.49760392      -1.49422444
H       -0.20339264       1.35978579       0.17687540
H        2.19463605       1.07608456       0.79147103
11
Frame=13 idx=009954 GeodesicLength=1.2681102300800124 rxn_smarts="[C:1]([C:2](=[O:3])[C:4](=[O:5])[C:6](=[O:7])[H:11])([H:8])([H:9])[H:10]>>[C:1]1([H:8])([H:9])[C:2]2([O:3]1)[C:4](=[O:5])[C:6]([H:10])([H:11])[O:7]2"
C       -1.35307366       0.10083789      -0.51908794
C       -0.14104660      -0.72323434      -0.38758232
O       -0.71406511      -1.60830501      -1.06831142
C        0.71453357      -0.60808136       0.87579873
O        0.49735217      -0.93467637       1.99819776
C        1.31776349       0.69928770       0.30715063
O        1.43616391       0.22955687      -0.92808309
H       -2.11919647      -0.03224629       0.24222763
H       -1.65263332       0.46822586      -1.49417671
H       -0.21936209       1.37332455       0.16701516
H        2.23356411       1.03531049       0.80685157
11
Frame=14 idx=009954 GeodesicLength=1.3657665060980235 rxn_smarts="[C:1]([C:2](=[O:3])[C:4](=[O:5])[C:6](=[O:7])[H:11])([H:8])([H:9])[H:10]>>[C:1]1([H:8])([H:9])[C:2]2([O:3]1)[C:4](=[O:5])[C:6]([H:10])([H:11])[O:7]2"
C       -1.36838987       0.09112477      -0.52064249
C       -0.13589858      -0.70341104      -0.39466230
O       -0.70430730      -1.58982181      -1.08095863
C        0.71607999      -0.60288183       0.87202544
O        0.46780820      -0.90542520       1.99548158
C        1.34589922       0.69883970       0.31389676
O        1.45907202       0.24466636      -0.92682743
H       -2.11724362      -0.04986701       0.25643779
H       -1.69920059       0.43696845      -1.49337491
H       -0.23649218       1.38775155       0.15641050
H        2.27267271       0.99205605       0.82221368
11
Frame=15 idx=009954 GeodesicLength=1.46343865974015 rxn_smarts="[C:1]([C:2](=[O:3])[C:4](=[O:5])[C:6](=[O:7])[H:11])([H:8])([H:9])[H:10]>>[C:1]1([H:8])([H:9])[C:2]2([O:3]1)[C:4](=[O:5])[C:6]([H:10])([H:11])[O:7]2"
C       -1.38409757       0.08126156      -0.52233559
C       -0.13103906      -0.68193945      -0.40182742
O       -0.69382888      -1.57041151      -1.09360998
C        0.71694855      -0.59692684       0.86838218
O        0.43901925      -0.87539995       1.99189248
C        1.37525097       0.69778634       0.32148387
O        1.48246741       0.26041897      -0.92496202
H       -2.11522519      -0.06763815       0.27017386
H       -1.74649125       0.40365559      -1.49173954
H       -0.25494805       1.40313023       0.14508141
H        2.31194381       0.94606321       0.83746075
11
Frame=16 idx=009954 GeodesicLength=1.5611233736172114 rxn_smarts="[C:1]([C:2](=[O:3])[C:4](=[O:5])[C:6](=[O:7])[H:11])([H:8])([H:9])[H:10]>>[C:1]1([H:8])([H:9])[C:2]2([O:3]1)[C:4](=[O:5])[C:6]([H:10])([H:11])[O:7]2"
C       -1.40019191       0.07120783      -0.52417018
C       -0.12648499      -0.65867372      -0.40907185
O       -0.68254995      -1.54994165      -1.10630126
C        0.71715083      -0.59015648       0.86482522
O        0.41094444      -0.84443603       1.98750578
C        1.40590704       0.69600312       0.32995033
O        1.50630615       0.27695853      -0.92247989
H       -2.11313398      -0.08560789       0.28342220
H       -1.79436732       0.36810145      -1.48919159
H       -0.27493510       1.41953089       0.13306000
H        2.35135480       0.89701395       0.85245125
