10
Frame=0 idx=009382 GeodesicLength=0.0 rxn_smarts="[O:1]=[C:2]([C:3]([C:4]#[C:5][H:10])([H:8])[H:9])[C:6]#[N:7]>>[o:1]1[c:2]([C:6]#[N:7])[c:3]([H:8])[c:4]([H:9])[c:5]1[H:10]"
O        0.25089238       0.68479995       0.98505122
C       -0.48030480       0.45936481      -0.06633966
C        0.08158711      -0.61619214      -0.80175800
C        1.37836318      -1.00833892      -0.13767714
C        1.32440846      -0.19003691       0.96234632
C       -1.63825495       1.24729687      -0.28579992
N       -2.58562830       1.85685067      -0.51132699
H       -0.21554329      -0.86228288      -1.81202876
H       -0.10868942      -1.53541143      -0.12609460
H        1.99316962      -0.03605002       1.79362752
10
Frame=1 idx=009382 GeodesicLength=0.12095176415622794 rxn_smarts="[O:1]=[C:2]([C:3]([C:4]#[C:5][H:10])([H:8])[H:9])[C:6]#[N:7]>>[o:1]1[c:2]([C:6]#[N:7])[c:3]([H:8])[c:4]([H:9])[c:5]1[H:10]"
O        0.20776608       0.66238902       1.01862233
C       -0.51422176       0.43285952      -0.03627566
C        0.06644288      -0.61931145      -0.79194306
C        1.37829166      -0.98108574      -0.15106235
C        1.34150951      -0.18611995       0.95913698
C       -1.63243672       1.26502422      -0.30245580
N       -2.56834123       1.88627910      -0.54331927
H       -0.22949467      -0.85423816      -1.80519693
H       -0.07263561      -1.57427567      -0.12689718
H        2.02311987      -0.03152091       1.77939093
10
Frame=2 idx=009382 GeodesicLength=0.24181917706392292 rxn_smarts="[O:1]=[C:2]([C:3]([C:4]#[C:5][H:10])([H:8])[H:9])[C:6]#[N:7]>>[o:1]1[c:2]([C:6]#[N:7])[c:3]([H:8])[c:4]([H:9])[c:5]1[H:10]"
O        0.16240665       0.63685876       1.05249557
C       -0.54852658       0.40602935      -0.00784671
C        0.05063335      -0.62330073      -0.78198722
C        1.37627361      -0.95340960      -0.16347834
C        1.35737452      -0.18053497       0.95526765
C       -1.62416927       1.28139870      -0.31745690
N       -2.54685620       1.91620877      -0.57351758
H       -0.24372784      -0.84729108      -1.79817993
H       -0.03496850      -1.61207765      -0.12938137
H        2.05156026      -0.02388155       1.76408483
10
Frame=3 idx=009382 GeodesicLength=0.36264346962439187 rxn_smarts="[O:1]=[C:2]([C:3]([C:4]#[C:5][H:10])([H:8])[H:9])[C:6]#[N:7]>>[o:1]1[c:2]([C:6]#[N:7])[c:3]([H:8])[c:4]([H:9])[c:5]1[H:10]"
O        0.11579904       0.60903715       1.08575855
C       -0.58133056       0.38086537       0.01733831
C        0.03473536      -0.62799718      -0.77222694
C        1.37194342      -0.92681263      -0.17398149
C        1.37181192      -0.17408265       0.95129610
C       -1.61470074       1.29571338      -0.33004999
N       -2.52230644       1.94579900      -0.60128333
H       -0.25744512      -0.84131033      -1.79136710
H        0.00288780      -1.64803278      -0.13331099
H        2.07860531      -0.01317933       1.74782687
10
Frame=4 idx=009382 GeodesicLength=0.48345644370613877 rxn_smarts="[O:1]=[C:2]([C:3]([C:4]#[C:5][H:10])([H:8])[H:9])[C:6]#[N:7]>>[o:1]1[c:2]([C:6]#[N:7])[c:3]([H:8])[c:4]([H:9])[c:5]1[H:10]"
O        0.06897809       0.58029721       1.11748699
C       -0.61225089       0.35787168       0.03920081
C        0.01889881      -0.63337444      -0.76268818
C        1.36562210      -0.90151445      -0.18266872
C        1.38531732      -0.16668078       0.94703138
C       -1.60479080       1.30815457      -0.34044087
N       -2.49582096       1.97461606      -0.62652336
H       -0.27065698      -0.83632411      -1.78473328
H        0.04083886      -1.68199794      -0.13819148
H        2.10386445      -0.00104779       1.73152671
10
Frame=5 idx=009382 GeodesicLength=0.6042730471012401 rxn_smarts="[O:1]=[C:2]([C:3]([C:4]#[C:5][H:10])([H:8])[H:9])[C:6]#[N:7]>>[o:1]1[c:2]([C:6]#[N:7])[c:3]([H:8])[c:4]([H:9])[c:5]1[H:10]"
O        0.02189212       0.55080048       1.14773395
C       -0.64176740       0.33654673       0.05840830
C        0.00312039      -0.63945321      -0.75327377
C        1.35751466      -0.87760645      -0.18956720
C        1.39785504      -0.15884076       0.94279907
C       -1.59469073       1.31907567      -0.34891540
N       -2.46748469       2.00301209      -0.64959998
H       -0.28331448      -0.83206441      -1.77825838
H        0.07901279      -1.71434831      -0.14415548
H        2.12786232       0.01287818       1.71482889
10
Frame=6 idx=009382 GeodesicLength=0.7251128212513079 rxn_smarts="[O:1]=[C:2]([C:3]([C:4]#[C:5][H:10])([H:8])[H:9])[C:6]#[N:7]>>[o:1]1[c:2]([C:6]#[N:7])[c:3]([H:8])[c:4]([H:9])[c:5]1[H:10]"
O       -0.02548647       0.52080544       1.17652653
C       -0.67029334       0.31651854       0.07551866
C       -0.01268518      -0.64624318      -0.74386183
C        1.34784910      -0.85491798      -0.19489993
C        1.40966142      -0.15055723       0.93852019
C       -1.58452673       1.32877231      -0.35574104
N       -2.43736858       2.03110385      -0.67089370
H       -0.29560916      -0.82844844      -1.77180746
H        0.11770438      -1.74524701      -0.15115575
H        2.15075457       0.02821370       1.69779433
10
Frame=7 idx=009382 GeodesicLength=0.8459518172232277 rxn_smarts="[O:1]=[C:2]([C:3]([C:4]#[C:5][H:10])([H:8])[H:9])[C:6]#[N:7]>>[o:1]1[c:2]([C:6]#[N:7])[c:3]([H:8])[c:4]([H:9])[c:5]1[H:10]"
O       -0.07361178       0.49001980       1.20406554
C       -0.69820048       0.29735625       0.09086168
C       -0.02851924      -0.65381750      -0.73440208
C        1.33667190      -0.83365006      -0.19854589
C        1.42061089      -0.14227259       0.93448456
C       -1.57415033       1.33747535      -0.36129915
N       -2.40521745       2.05928700      -0.69022624
H       -0.30737837      -0.82536470      -1.76539441
H        0.15691577      -1.77496009      -0.15938087
H        2.17287910       0.04592655       1.67983686
10
Frame=8 idx=009382 GeodesicLength=0.9667845609036049 rxn_smarts="[O:1]=[C:2]([C:3]([C:4]#[C:5][H:10])([H:8])[H:9])[C:6]#[N:7]>>[o:1]1[c:2]([C:6]#[N:7])[c:3]([H:8])[c:4]([H:9])[c:5]1[H:10]"
O       -0.12218465       0.45917119       1.23021252
C       -0.72557494       0.27914809       0.10477528
C       -0.04447546      -0.66203152      -0.72475913
C        1.32419923      -0.81343274      -0.20087174
C        1.43126274      -0.13340909       0.93015805
C       -1.56380904       1.34532829      -0.36559537
N       -2.37143110       2.08701654      -0.70825946
H       -0.31902651      -0.82281023      -1.75876010
H        0.19693305      -1.80321583      -0.16854655
H        2.19410668       0.06423530       1.66164650
10
Frame=9 idx=009382 GeodesicLength=1.087635284834632 rxn_smarts="[O:1]=[C:2]([C:3]([C:4]#[C:5][H:10])([H:8])[H:9])[C:6]#[N:7]>>[o:1]1[c:2]([C:6]#[N:7])[c:3]([H:8])[c:4]([H:9])[c:5]1[H:10]"
O       -0.17175350       0.42785564       1.25518730
C       -0.75266841       0.26158027       0.11738753
C       -0.06051055      -0.67096263      -0.71493989
C        1.31042240      -0.79460374      -0.20162022
C        1.44146523      -0.12437869       0.92585549
C       -1.55338739       1.35241955      -0.36894544
N       -2.33566565       2.11476133      -0.72464483
H       -0.33031661      -0.82074872      -1.75198700
H        0.23763755      -1.83023674      -0.17886419
H        2.21477693       0.08431373       1.64257126
10
Frame=10 idx=009382 GeodesicLength=1.2084961694996652 rxn_smarts="[O:1]=[C:2]([C:3]([C:4]#[C:5][H:10])([H:8])[H:9])[C:6]#[N:7]>>[o:1]1[c:2]([C:6]#[N:7])[c:3]([H:8])[c:4]([H:9])[c:5]1[H:10]"
O       -0.22247849       0.39618341       1.27902575
C       -0.77958095       0.24461641       0.12885488
C       -0.07664135      -0.68055495      -0.70488442
C        1.29540639      -0.77719195      -0.20078602
C        1.45140384      -0.11506602       0.92144187
C       -1.54287105       1.35887176      -0.37145016
N       -2.29797628       2.14235270      -0.73950969
H       -0.34127761      -0.81912566      -1.74499666
H        0.27903512      -1.85594476      -0.19028372
H        2.23498037       0.10585905       1.62258816
10
Frame=11 idx=009382 GeodesicLength=1.3293718278279565 rxn_smarts="[O:1]=[C:2]([C:3]([C:4]#[C:5][H:10])([H:8])[H:9])[C:6]#[N:7]>>[o:1]1[c:2]([C:6]#[N:7])[c:3]([H:8])[c:4]([H:9])[c:5]1[H:10]"
O       -0.27450067       0.36427929       1.30178566
C       -0.80640316       0.22824297       0.13935242
C       -0.09289581      -0.69072550      -0.69452388
C        1.27921442      -0.76117437      -0.19837732
C        1.46129693      -0.10523648       0.91670213
C       -1.53232921       1.36477023      -0.37308880
N       -2.25840928       2.16955432      -0.75315216
H       -0.35196695      -0.81785272      -1.73770141
H        0.32115047      -1.88021389      -0.20273909
H        2.25484326       0.12835616       1.60174245
10
Frame=12 idx=009382 GeodesicLength=1.4502347447721877 rxn_smarts="[O:1]=[C:2]([C:3]([C:4]#[C:5][H:10])([H:8])[H:9])[C:6]#[N:7]>>[o:1]1[c:2]([C:6]#[N:7])[c:3]([H:8])[c:4]([H:9])[c:5]1[H:10]"
O       -0.32825509       0.33204763       1.32338949
C       -0.83318706       0.21241547       0.14876444
C       -0.10918431      -0.70149161      -0.68387920
C        1.26186083      -0.74690935      -0.19407246
C        1.47111123      -0.09508791       0.91177523
C       -1.52150017       1.37021477      -0.37431518
N       -2.21702191       2.19653955      -0.76489187
H       -0.36210103      -0.81701093      -1.73013768
H        0.36377594      -1.90311976      -0.21624336
H        2.27450159       0.15240214       1.57961061
10
Frame=13 idx=009382 GeodesicLength=1.5710980849548768 rxn_smarts="[O:1]=[C:2]([C:3]([C:4]#[C:5][H:10])([H:8])[H:9])[C:6]#[N:7]>>[o:1]1[c:2]([C:6]#[N:7])[c:3]([H:8])[c:4]([H:9])[c:5]1[H:10]"
O       -0.38378468       0.29974818       1.34390621
C       -0.85996823       0.19721897       0.15732484
C       -0.12554911      -0.71267086      -0.67286572
C        1.24341731      -0.73430225      -0.18789704
C        1.48117458      -0.08421258       0.90628826
C       -1.51055558       1.37531073      -0.37486480
N       -2.17407152       2.22276575      -0.77543063
H       -0.37175699      -0.81634347      -1.72221169
H        0.40692435      -1.92444241      -0.23066045
H        2.29416988       0.17692795       1.55641102
10
Frame=14 idx=009382 GeodesicLength=1.6919564500932087 rxn_smarts="[O:1]=[C:2]([C:3]([C:4]#[C:5][H:10])([H:8])[H:9])[C:6]#[N:7]>>[o:1]1[c:2]([C:6]#[N:7])[c:3]([H:8])[c:4]([H:9])[c:5]1[H:10]"
O       -0.44150556       0.26731194       1.36329091
C       -0.88679599       0.18263592       0.16499582
C       -0.14193328      -0.72422729      -0.66148689
C        1.22389573      -0.72364775      -0.17952846
C        1.49153765      -0.07265660       0.90023849
C       -1.49932544       1.38016194      -0.37493119
N       -2.12968345       2.24825679      -0.78446672
H       -0.38067074      -0.81579108      -1.71396046
H        0.45041938      -1.94423052      -0.24593425
H        2.31406169       0.20218664       1.53178276
10
Frame=15 idx=009382 GeodesicLength=1.812846364354637 rxn_smarts="[O:1]=[C:2]([C:3]([C:4]#[C:5][H:10])([H:8])[H:9])[C:6]#[N:7]>>[o:1]1[c:2]([C:6]#[N:7])[c:3]([H:8])[c:4]([H:9])[c:5]1[H:10]"
O       -0.50180426       0.23458870       1.38163118
C       -0.91385192       0.16850830       0.17195360
C       -0.15839829      -0.73615597      -0.64967386
C        1.20328858      -0.71491747      -0.16881674
C        1.50233082      -0.05998876       0.89329581
C       -1.48807677       1.38466925      -0.37427333
N       -2.08343649       2.27308168      -0.79232340
H       -0.38881646      -0.81525584      -1.70534227
H        0.49440298      -1.96243280      -0.26202611
H        2.33436181       0.22790292       1.50557513
10
Frame=16 idx=009382 GeodesicLength=1.9336555519301533 rxn_smarts="[O:1]=[C:2]([C:3]([C:4]#[C:5][H:10])([H:8])[H:9])[C:6]#[N:7]>>[o:1]1[c:2]([C:6]#[N:7])[c:3]([H:8])[c:4]([H:9])[c:5]1[H:10]"
O       -0.56527135       0.20173551       1.39841628
C       -0.94102324       0.15506600       0.17780623
C       -0.17478057      -0.74835539      -0.63741198
C        1.18157194      -0.70868009      -0.15506032
C        1.51355641      -0.04665931       0.88559782
C       -1.47608565       1.38905690      -0.37365882
N       -2.03614650       2.29714599      -0.79776587
H       -0.39559150      -0.81477848      -1.69629193
H        0.53849191      -1.97905755      -0.27876570
H        2.35527855       0.25452640       1.47713428
