18
Frame=0 idx=011100 GeodesicLength=0.0 rxn_smarts="[C:1]([C@@:2]1([H:11])[C:3]([H:12])([H:13])[N:4]1[C:5]([C:6]([O:7][H:18])([H:16])[H:17])([H:14])[H:15])([H:8])([H:9])[H:10]>>[C:1]([C@@:2]1([H:11])[C:3]([H:12])=[N+:4]1[C-:5]([C:6]([O:7][H:18])([H:16])[H:17])[H:14])([H:8])([H:9])[H:10].[H:13][H:15]"
C        2.23207224      -0.26054118      -1.49224152
C        1.37022155      -0.52455360      -0.28732161
C        0.96860087       0.46644962       0.74194269
N        0.08016161       0.13047648      -0.22242137
C       -1.15830542      -0.31229727      -0.23660507
C       -2.30223284       0.54772411       0.20539104
O       -2.03850921       1.29692268       1.36252661
H        1.95707586      -0.90783712      -2.32843505
H        3.27782412      -0.45759532      -1.24923853
H        2.14486937       0.77879172      -1.81066234
H        1.35461981      -1.56322256       0.05795549
H        1.33218695       1.44883053       1.00322918
H        0.14646052      -0.43588428       1.74802253
H       -1.37098307      -1.12000350      -0.93005458
H       -0.58446667      -0.94489796       1.66998919
H       -2.54890767       1.27374990      -0.57719033
H       -3.17841877      -0.10219244       0.32792812
H       -1.68226931       0.68608023       2.01718547
18
Frame=1 idx=011100 GeodesicLength=0.0805001866212169 rxn_smarts="[C:1]([C@@:2]1([H:11])[C:3]([H:12])([H:13])[N:4]1[C:5]([C:6]([O:7][H:18])([H:16])[H:17])([H:14])[H:15])([H:8])([H:9])[H:10]>>[C:1]([C@@:2]1([H:11])[C:3]([H:12])=[N+:4]1[C-:5]([C:6]([O:7][H:18])([H:16])[H:17])[H:14])([H:8])([H:9])[H:10].[H:13][H:15]"
C        2.22054188      -0.24699464      -1.50255687
C        1.37369749      -0.52962914      -0.29131171
C        0.98293032       0.44741131       0.75541942
N        0.08316150       0.12226660      -0.20602608
C       -1.15412788      -0.33452261      -0.20066445
C       -2.29694169       0.55034367       0.19125659
O       -2.07585717       1.30017541       1.35652651
H        1.93635828      -0.88235395      -2.34479495
H        3.26946965      -0.44610873      -1.27526312
H        2.12843253       0.79680566      -1.80469451
H        1.36705478      -1.57221156       0.04117568
H        1.35037036       1.43068094       1.00885729
H        0.15920176      -0.44200260       1.77233928
H       -1.36245255      -1.15900134      -0.87598532
H       -0.59638016      -0.94245085       1.68548671
H       -2.49623491       1.27680572      -0.60491993
H       -3.19315884      -0.07673026       0.28127623
H       -1.69606535       0.70751637       2.01387924
18
Frame=2 idx=011100 GeodesicLength=0.16113814513269764 rxn_smarts="[C:1]([C@@:2]1([H:11])[C:3]([H:12])([H:13])[N:4]1[C:5]([C:6]([O:7][H:18])([H:16])[H:17])([H:14])[H:15])([H:8])([H:9])[H:10]>>[C:1]([C@@:2]1([H:11])[C:3]([H:12])=[N+:4]1[C-:5]([C:6]([O:7][H:18])([H:16])[H:17])[H:14])([H:8])([H:9])[H:10].[H:13][H:15]"
C        2.20821435      -0.23351242      -1.51272640
C        1.37668933      -0.53486260      -0.29546558
C        0.99803310       0.42773631       0.76905789
N        0.08639793       0.11451563      -0.18905606
C       -1.14978996      -0.35496070      -0.16447188
C       -2.29129167       0.55182391       0.17690762
O       -2.11549441       1.30230722       1.34913055
H        1.91405593      -0.85625628      -2.36092380
H        3.26006367      -0.43525480      -1.30165571
H        2.11199906       0.81471113      -1.79793021
H        1.37809562      -1.58137789       0.02335975
H        1.36983248       1.41150200       1.01517750
H        0.17244757      -0.44767769       1.79717760
H       -1.35359483      -1.19562981      -0.82153029
H       -0.60837175      -0.93889978       1.70197315
H       -2.44349117       1.27817651      -0.63028909
H       -3.20452793      -0.05393052       0.23191340
H       -1.70926731       0.73158979       2.00935158
18
Frame=3 idx=011100 GeodesicLength=0.24186096394667328 rxn_smarts="[C:1]([C@@:2]1([H:11])[C:3]([H:12])([H:13])[N:4]1[C:5]([C:6]([O:7][H:18])([H:16])[H:17])([H:14])[H:15])([H:8])([H:9])[H:10]>>[C:1]([C@@:2]1([H:11])[C:3]([H:12])=[N+:4]1[C-:5]([C:6]([O:7][H:18])([H:16])[H:17])[H:14])([H:8])([H:9])[H:10].[H:13][H:15]"
C        2.19511498      -0.22006434      -1.52272081
C        1.37918036      -0.54025896      -0.29980275
C        1.01387545       0.40736487       0.78280471
N        0.08986994       0.10718765      -0.17153703
C       -1.14531916      -0.37371577      -0.12804717
C       -2.28530233       0.55217853       0.16238818
O       -2.15741502       1.30293170       1.34036055
H        1.89024316      -0.82951468      -2.37675311
H        3.24961274      -0.42495104      -1.32837490
H        2.09559472       0.83251219      -1.79035332
H        1.38770399      -1.59071246       0.00448709
H        1.39053149       1.39124529       1.02212487
H        0.18623928      -0.45294854       1.82250714
H       -1.34445313      -1.23001540      -0.76670380
H       -0.62046764      -0.93420951       1.71941141
H       -2.39071165       1.27822659      -0.65309014
H       -3.21250701      -0.03382153       0.17990878
H       -1.72179017       0.75856539       2.00339031
18
Frame=4 idx=011100 GeodesicLength=0.3226076145724916 rxn_smarts="[C:1]([C@@:2]1([H:11])[C:3]([H:12])([H:13])[N:4]1[C:5]([C:6]([O:7][H:18])([H:16])[H:17])([H:14])[H:15])([H:8])([H:9])[H:10]>>[C:1]([C@@:2]1([H:11])[C:3]([H:12])=[N+:4]1[C-:5]([C:6]([O:7][H:18])([H:16])[H:17])[H:14])([H:8])([H:9])[H:10].[H:13][H:15]"
C        2.18127765      -0.20662762      -1.53251532
C        1.38115208      -0.54582336      -0.30434437
C        1.03041364       0.38624514       0.79659906
N        0.09357392       0.10024574      -0.15350438
C       -1.14074620      -0.39088330      -0.09141587
C       -2.27899178       0.55142021       0.14774446
O       -2.20157835       1.30158138       1.33027285
H        1.86501436      -0.80211941      -2.39221867
H        3.23813295      -0.41511203      -1.35537590
H        2.07924770       0.85020335      -1.78196733
H        1.39583465      -1.60020449      -0.01545575
H        1.41241937       1.36987266       1.02962166
H        0.20061104      -0.45784856       1.84829741
H       -1.33507294      -1.26228736      -0.71151168
H       -0.63269975      -0.92833776       1.73776812
H       -2.33793746       1.27734630      -0.67307528
H       -3.21703912      -0.01641320       0.12533975
H       -1.73361176       0.78874230       1.99574125
18
Frame=5 idx=011100 GeodesicLength=0.40329125828465423 rxn_smarts="[C:1]([C@@:2]1([H:11])[C:3]([H:12])([H:13])[N:4]1[C:5]([C:6]([O:7][H:18])([H:16])[H:17])([H:14])[H:15])([H:8])([H:9])[H:10]>>[C:1]([C@@:2]1([H:11])[C:3]([H:12])=[N+:4]1[C-:5]([C:6]([O:7][H:18])([H:16])[H:17])[H:14])([H:8])([H:9])[H:10].[H:13][H:15]"
C        2.16671274      -0.19317864      -1.54205530
C        1.38258406      -0.55156114      -0.30909737
C        1.04760438       0.36431429       0.81036329
N        0.09750336       0.09364027      -0.13500038
C       -1.13609850      -0.40655894      -0.05460917
C       -2.27236486       0.54954620       0.13302266
O       -2.24791155       1.29774779       1.31896155
H        1.83841791      -0.77403666      -2.40721915
H        3.22561969      -0.40567660      -1.38258395
H        2.06297460       0.86777803      -1.77272812
H        1.40244516      -1.60983108      -0.03646931
H        1.43543886       1.34732414       1.03756850
H        0.21562450      -0.46239246       1.87449334
H       -1.32551246      -1.29254122      -0.65598064
H       -0.64505128      -0.92123239       1.75698186
H       -2.28524179       1.27589759      -0.68997904
H       -3.21804009      -0.00169099       0.06831145
H       -1.74470474       0.82245180       1.98601978
18
Frame=6 idx=011100 GeodesicLength=0.48378587037370435 rxn_smarts="[C:1]([C@@:2]1([H:11])[C:3]([H:12])([H:13])[N:4]1[C:5]([C:6]([O:7][H:18])([H:16])[H:17])([H:14])[H:15])([H:8])([H:9])[H:10]>>[C:1]([C@@:2]1([H:11])[C:3]([H:12])=[N+:4]1[C-:5]([C:6]([O:7][H:18])([H:16])[H:17])[H:14])([H:8])([H:9])[H:10].[H:13][H:15]"
C        2.15149442      -0.17972897      -1.55131826
C        1.38345266      -0.55746744      -0.31408309
C        1.06536023       0.34156082       0.82401560
N        0.10165112       0.08734972      -0.11610608
C       -1.13140358      -0.42080913      -0.01770332
C       -2.26543384       0.54657329       0.11829514
O       -2.29614422       1.29082245       1.30657510
H        1.81063578      -0.74533761      -2.42169128
H        3.21212268      -0.39656740      -1.40991195
H        2.04683189       0.88518364      -1.76269449
H        1.40746635      -1.61956081      -0.05853787
H        1.45950555       1.32360200       1.04585663
H        0.23127674      -0.46659009       1.90104565
H       -1.31580901      -1.32085543      -0.60020195
H       -0.65756785      -0.91285713       1.77698081
H       -2.23277866       1.27429980      -0.70346875
H       -3.21537602       0.01037070       0.00908362
H       -1.75528425       0.86001157       1.97386450
18
Frame=7 idx=011100 GeodesicLength=0.5639571335103141 rxn_smarts="[C:1]([C@@:2]1([H:11])[C:3]([H:12])([H:13])[N:4]1[C:5]([C:6]([O:7][H:18])([H:16])[H:17])([H:14])[H:15])([H:8])([H:9])[H:10]>>[C:1]([C@@:2]1([H:11])[C:3]([H:12])=[N+:4]1[C-:5]([C:6]([O:7][H:18])([H:16])[H:17])[H:14])([H:8])([H:9])[H:10].[H:13][H:15]"
C        2.13568707      -0.16627672      -1.56025053
C        1.38374906      -0.56354054      -0.31930499
C        1.08359595       0.31796006       0.83746501
N        0.10600915       0.08132956      -0.09691091
C       -1.12668864      -0.43371795       0.01921696
C       -2.25819681       0.54252462       0.10362927
O       -2.34580599       1.28031151       1.29326830
H        1.78180580      -0.71604245      -2.43554499
H        3.19769184      -0.38773217      -1.43724882
H        2.03088204       0.90239120      -1.75185694
H        1.41085568      -1.62936107      -0.08163614
H        1.48452233       1.29869087       1.05436644
H        0.24759470      -0.47044787       1.92788026
H       -1.30602548      -1.34730118      -0.54428825
H       -0.67024478      -0.90319808       1.79765299
H       -2.18078861       1.27287751      -0.71330021
H       -3.20895584       0.01986425      -0.05191497
H       -1.76568746       0.90166842       1.95877751
18
Frame=8 idx=011100 GeodesicLength=0.6437146565779958 rxn_smarts="[C:1]([C@@:2]1([H:11])[C:3]([H:12])([H:13])[N:4]1[C:5]([C:6]([O:7][H:18])([H:16])[H:17])([H:14])[H:15])([H:8])([H:9])[H:10]>>[C:1]([C@@:2]1([H:11])[C:3]([H:12])=[N+:4]1[C-:5]([C:6]([O:7][H:18])([H:16])[H:17])[H:14])([H:8])([H:9])[H:10].[H:13][H:15]"
C        2.11944623      -0.15282350      -1.56880270
C        1.38350142      -0.56978042      -0.32477773
C        1.10221795       0.29351400       0.85059845
N        0.11056486       0.07554018      -0.07754016
C       -1.12201112      -0.44536955       0.05604152
C       -2.25069853       0.53747582       0.08911340
O       -2.39609043       1.26594764       1.27915091
H        1.75219903      -0.68621274      -2.44869970
H        3.18249429      -0.37910016      -1.46445338
H        2.01524775       0.91938241      -1.74024595
H        1.41261181      -1.63921780      -0.10573119
H        1.51039118       1.27261857       1.06295417
H        0.26459342      -0.47400756       1.95489239
H       -1.29626755      -1.37196053      -0.48838570
H       -0.68309772      -0.89232358       1.81884004
H       -2.12969467       1.27186578      -0.71933516
H       -3.19884061       0.02697977      -0.11389422
H       -1.77656733       0.94747166       1.94027502
18
Frame=9 idx=011100 GeodesicLength=0.7227213759444451 rxn_smarts="[C:1]([C@@:2]1([H:11])[C:3]([H:12])([H:13])[N:4]1[C:5]([C:6]([O:7][H:18])([H:16])[H:17])([H:14])[H:15])([H:8])([H:9])[H:10]>>[C:1]([C@@:2]1([H:11])[C:3]([H:12])=[N+:4]1[C-:5]([C:6]([O:7][H:18])([H:16])[H:17])[H:14])([H:8])([H:9])[H:10].[H:13][H:15]"
C        2.10276745      -0.13932065      -1.57686841
C        1.38262013      -0.57612941      -0.33047875
C        1.12099745       0.26820151       0.86337408
N        0.11529980       0.06993237      -0.05811546
C       -1.11731008      -0.45582616       0.09262350
C       -2.24272602       0.53147233       0.07478157
O       -2.44558429       1.24824018       1.26416410
H        1.72190455      -0.65572642      -2.46108483
H        3.16642765      -0.37063704      -1.49132717
H        2.00001332       0.93613413      -1.72772600
H        1.41258416      -1.64897416      -0.13080626
H        1.53680508       1.24532059       1.07160312
H        0.28222841      -0.47727182       1.98199694
H       -1.28651966      -1.39478687      -0.43277739
H       -0.69607396      -0.88030471       1.84032916
H       -2.07981851       1.27092136      -0.72203729
H       -3.18496913       0.03185849      -0.17560999
H       -1.78864636       0.99689628       1.91795907
18
Frame=10 idx=011100 GeodesicLength=0.8011123280206188 rxn_smarts="[C:1]([C@@:2]1([H:11])[C:3]([H:12])([H:13])[N:4]1[C:5]([C:6]([O:7][H:18])([H:16])[H:17])([H:14])[H:15])([H:8])([H:9])[H:10]>>[C:1]([C@@:2]1([H:11])[C:3]([H:12])=[N+:4]1[C-:5]([C:6]([O:7][H:18])([H:16])[H:17])[H:14])([H:8])([H:9])[H:10].[H:13][H:15]"
C        2.08594346      -0.12574707      -1.58440010
C        1.38120497      -0.58256188      -0.33642910
C        1.13989404       0.24206608       0.87568205
N        0.12020911       0.06454524      -0.03875192
C       -1.11267875      -0.46511813       0.12887899
C       -2.23441926       0.52470803       0.06072166
O       -2.49292397       1.22808271       1.24815298
H        1.69132713      -0.62462188      -2.47262666
H        3.14984554      -0.36227878      -1.51772711
H        1.98542606       0.95268332      -1.71433483
H        1.41085085      -1.65862206      -0.15682951
H        1.56376799       1.21687193       1.08019308
H        0.30055191      -0.48040509       2.00904281
H       -1.27692922      -1.41582141      -0.37761374
H       -0.70919849      -0.86740283       1.86189445
H       -2.03187531       1.26979627      -0.72199899
H       -3.16798442       0.03475494      -0.23557968
H       -1.80301162       1.04907064       1.89172562
18
Frame=11 idx=011100 GeodesicLength=0.8789427739483003 rxn_smarts="[C:1]([C@@:2]1([H:11])[C:3]([H:12])([H:13])[N:4]1[C:5]([C:6]([O:7][H:18])([H:16])[H:17])([H:14])[H:15])([H:8])([H:9])[H:10]>>[C:1]([C@@:2]1([H:11])[C:3]([H:12])=[N+:4]1[C-:5]([C:6]([O:7][H:18])([H:16])[H:17])[H:14])([H:8])([H:9])[H:10].[H:13][H:15]"
C        2.06900208      -0.11198294      -1.59132851
C        1.37922005      -0.58901330      -0.34262376
C        1.15882975       0.21503897       0.88753323
N        0.12529957       0.05940609      -0.01943729
C       -1.10807786      -0.47325624       0.16482311
C       -2.22566604       0.51727755       0.04689359
O       -2.53697009       1.20690214       1.23079115
H        1.66047620      -0.59260434      -2.48329458
H        3.13272037      -0.35401868      -1.54361255
H        1.97164948       0.96912426      -1.69987637
H        1.40731141      -1.66803857      -0.18386114
H        1.59122411       1.18714051       1.08880198
H        0.31962302      -0.48354557       2.03598447
H       -1.26747389      -1.43506965      -0.32289638
H       -0.72245050      -0.85372756       1.88343957
H       -1.98612797       1.26777897      -0.72036204
H       -3.14835723       0.03572437      -0.29259624
H       -1.82023247       1.10286399       1.86162177
18
Frame=12 idx=011100 GeodesicLength=0.9564106916639225 rxn_smarts="[C:1]([C@@:2]1([H:11])[C:3]([H:12])([H:13])[N:4]1[C:5]([C:6]([O:7][H:18])([H:16])[H:17])([H:14])[H:15])([H:8])([H:9])[H:10]>>[C:1]([C@@:2]1([H:11])[C:3]([H:12])=[N+:4]1[C-:5]([C:6]([O:7][H:18])([H:16])[H:17])[H:14])([H:8])([H:9])[H:10].[H:13][H:15]"
C        2.05195387      -0.09788336      -1.59761380
C        1.37664820      -0.59543911      -0.34906178
C        1.17784478       0.18701641       0.89897573
N        0.13059294       0.05457009      -0.00008070
C       -1.10349870      -0.48023349       0.20055981
C       -2.21644094       0.50926882       0.03320353
O       -2.57708980       1.18615599       1.21172905
H        1.62928284      -0.55934701      -2.49307374
H        3.11504097      -0.34581868      -1.56902145
H        1.95881626       0.98560603      -1.68417763
H        1.40187846      -1.67716257      -0.21197913
H        1.61929997       1.15597753       1.09755459
H        0.33960787      -0.48691307       2.06284243
H       -1.25815674      -1.45260453      -0.26845809
H       -0.73581294      -0.83933555       1.90500364
H       -1.94271289       1.26426096      -0.71835334
H       -3.12671141       0.03469409      -0.34590882
H       -1.84054275       1.15718746       1.82785972
18
Frame=13 idx=011100 GeodesicLength=1.0336729817091301 rxn_smarts="[C:1]([C@@:2]1([H:11])[C:3]([H:12])([H:13])[N:4]1[C:5]([C:6]([O:7][H:18])([H:16])[H:17])([H:14])[H:15])([H:8])([H:9])[H:10]>>[C:1]([C@@:2]1([H:11])[C:3]([H:12])=[N+:4]1[C-:5]([C:6]([O:7][H:18])([H:16])[H:17])[H:14])([H:8])([H:9])[H:10].[H:13][H:15]"
C        2.03472747      -0.08331948      -1.60322842
C        1.37342842      -0.60179280      -0.35574648
C        1.19698698       0.15786979       0.91005435
N        0.13611730       0.05009420       0.01946249
C       -1.09890853      -0.48601331       0.23624963
C       -2.20669056       0.50070359       0.01955089
O       -2.61322979       1.16680099       1.19075267
H        1.59758959      -0.52454297      -2.50192398
H        3.09669185      -0.33762501      -1.59404509
H        1.94696724       1.00222597      -1.66707814
H        1.39440992      -1.68590050      -0.24127556
H        1.64814427       1.12318314       1.10655995
H        0.36069431      -0.49070565       2.08965716
H       -1.24892814      -1.46848638      -0.21401847
H       -0.74926891      -0.82412025       1.92671298
H       -1.90146693       1.25885082      -0.71688290
H       -3.10347855       0.03151362      -0.39538856
H       -1.86378592       1.21126423       1.79058748
18
Frame=14 idx=011100 GeodesicLength=1.1108860248945285 rxn_smarts="[C:1]([C@@:2]1([H:11])[C:3]([H:12])([H:13])[N:4]1[C:5]([C:6]([O:7][H:18])([H:16])[H:17])([H:14])[H:15])([H:8])([H:9])[H:10]>>[C:1]([C@@:2]1([H:11])[C:3]([H:12])=[N+:4]1[C-:5]([C:6]([O:7][H:18])([H:16])[H:17])[H:14])([H:8])([H:9])[H:10].[H:13][H:15]"
C        2.01730349      -0.06821947      -1.60815884
C        1.36949933      -0.60802712      -0.36269721
C        1.21628236       0.12750612       0.92072559
N        0.14189185       0.04604133       0.03929499
C       -1.09430030      -0.49052508       0.27204624
C       -2.19640263       0.49157583       0.00590788
O       -2.64585973       1.14918040       1.16781645
H        1.56535073      -0.48800589      -2.50977345
H        3.07762081      -0.32942075      -1.61875165
H        1.93618519       1.01900195      -1.64852030
H        1.38474210      -1.69413024      -0.27179728
H        1.67786591       1.08859416       1.11577060
H        0.38304765      -0.49502848       2.11642567
H       -1.23975484      -1.48271182      -0.15927466
H       -0.76281313      -0.80793121       1.94867884
H       -1.86212241       1.25141562      -0.71638295
H       -3.07895049       0.02611414      -0.44123315
H       -1.88958589       1.26457049       1.74992321
18
Frame=15 idx=011100 GeodesicLength=1.1881556338452925 rxn_smarts="[C:1]([C@@:2]1([H:11])[C:3]([H:12])([H:13])[N:4]1[C:5]([C:6]([O:7][H:18])([H:16])[H:17])([H:14])[H:15])([H:8])([H:9])[H:10]>>[C:1]([C@@:2]1([H:11])[C:3]([H:12])=[N+:4]1[C-:5]([C:6]([O:7][H:18])([H:16])[H:17])[H:14])([H:8])([H:9])[H:10].[H:13][H:15]"
C        1.99962078      -0.05252005      -1.61237997
C        1.36478098      -0.61409673      -0.36992443
C        1.23575049       0.09582199       0.93095140
N        0.14794189       0.04246759       0.05952865
C       -1.08965358      -0.49369433       0.30808974
C       -2.18555218       0.48184153      -0.00776352
O       -2.67544323       1.13333815       1.14292332
H        1.53245657      -0.44953727      -2.51652924
H        3.05771301      -0.32119662      -1.64322096
H        1.92652102       1.03592960      -1.62842022
H        1.37268591      -1.70172146      -0.30359042
H        1.70858249       1.05202595       1.12514786
H        0.40685856      -0.50000638       2.14314533
H       -1.23058806      -1.49527684      -0.10393153
H       -0.77642736      -0.79051619       1.97103330
H       -1.82437820       1.24194358      -0.71708439
H       -3.05327391       0.01838127      -0.48381867
H       -1.91759520       1.31681621       1.70584375
18
Frame=16 idx=011100 GeodesicLength=1.2655822774983903 rxn_smarts="[C:1]([C@@:2]1([H:11])[C:3]([H:12])([H:13])[N:4]1[C:5]([C:6]([O:7][H:18])([H:16])[H:17])([H:14])[H:15])([H:8])([H:9])[H:10]>>[C:1]([C@@:2]1([H:11])[C:3]([H:12])=[N+:4]1[C-:5]([C:6]([O:7][H:18])([H:16])[H:17])[H:14])([H:8])([H:9])[H:10].[H:13][H:15]"
C        1.98163773      -0.03616895      -1.61586265
C        1.35918718      -0.61995386      -0.37743419
C        1.25538126       0.06272733       0.94067171
N        0.15428911       0.03942433       0.08025028
C       -1.08495775      -0.49544730       0.34449306
C       -2.17412563       0.47143479      -0.02147190
O       -2.70243594       1.11909431       1.11613863
H        1.49883188      -0.40895565      -2.52208349
H        3.03686465      -0.31295307      -1.66751604
H        1.91806261       1.05298584      -1.60671170
H        1.35802735      -1.70853184      -0.33667583
H        1.74037713       1.01331027       1.13461371
H        0.43230800      -0.50577426       2.16979822
H       -1.22139614      -1.50616192      -0.04773571
H       -0.79009443      -0.77160877       1.99389527
H       -1.78795939       1.23049363      -0.71904310
H       -3.02652128       0.00821101      -0.52353048
H       -1.94747635       1.36787411       1.65820421
