12
Frame=0 idx=011813 GeodesicLength=0.0 rxn_smarts="[N:1]#[C:2][C@@:3]1([H:8])[O:4][C@@:5]2([H:9])[C:6]([H:10])([H:11])[C@@:7]12[H:12]>>[N:1](=[C:2]=[C:3]([O:4][C:5]1([H:9])[C:6]([H:10])=[C:7]1[H:12])[H:8])[H:11]"
N        1.44784766       1.65908878       0.17064251
C        1.67909718       0.50724887       0.39112967
C        1.14005006      -0.73322232       0.55307196
O        0.05034230      -0.69228020       1.42449796
C       -0.99938420      -0.38556232       0.50569593
C       -0.87236538       0.71920105      -0.50550982
C       -0.51644582      -0.53309360      -0.87326227
H        1.65920722      -1.67167361       0.41921795
H       -1.95928740      -0.71293780       0.89143783
H       -1.51171297       1.50778104      -0.87142198
H        0.39232826       1.53000476      -0.38050815
H       -0.50967688      -1.19455470      -1.72499159
12
Frame=1 idx=011813 GeodesicLength=0.0927215629597113 rxn_smarts="[N:1]#[C:2][C@@:3]1([H:8])[O:4][C@@:5]2([H:9])[C:6]([H:10])([H:11])[C@@:7]12[H:12]>>[N:1](=[C:2]=[C:3]([O:4][C:5]1([H:9])[C:6]([H:10])=[C:7]1[H:12])[H:8])[H:11]"
N        1.48226068       1.65734619       0.16642671
C        1.69761617       0.50353188       0.39300276
C        1.13467426      -0.72946947       0.55239763
O        0.04595606      -0.67692822       1.42536313
C       -1.00572047      -0.38551036       0.50497675
C       -0.88116968       0.72034393      -0.50329351
C       -0.51728551      -0.53251944      -0.87267484
H        1.64819495      -1.67293896       0.43136621
H       -1.95871761      -0.73933703       0.88457511
H       -1.53847812       1.49515896      -0.86680985
H        0.40326300       1.54611000      -0.38486364
H       -0.51059373      -1.18578748      -1.73046646
12
Frame=2 idx=011813 GeodesicLength=0.18538898846445617 rxn_smarts="[N:1]#[C:2][C@@:3]1([H:8])[O:4][C@@:5]2([H:9])[C:6]([H:10])([H:11])[C@@:7]12[H:12]>>[N:1](=[C:2]=[C:3]([O:4][C:5]1([H:9])[C:6]([H:10])=[C:7]1[H:12])[H:8])[H:11]"
N        1.51738335       1.65503988       0.16211482
C        1.71629231       0.49947164       0.39510934
C        1.12918831      -0.72547648       0.55169758
O        0.04142624      -0.66119657       1.42602415
C       -1.01223132      -0.38556626       0.50416011
C       -0.89045276       0.72152909      -0.50109460
C       -0.51820605      -0.53174915      -0.87217166
H        1.63680617      -1.67392220       0.44369304
H       -1.95743302      -0.76584253       0.87780660
H       -1.56583507       1.48178562      -0.86231299
H        0.41444078       1.56258501      -0.38899126
H       -0.51137893      -1.17665805      -1.73603512
12
Frame=3 idx=011813 GeodesicLength=0.2780173083463012 rxn_smarts="[N:1]#[C:2][C@@:3]1([H:8])[O:4][C@@:5]2([H:9])[C:6]([H:10])([H:11])[C@@:7]12[H:12]>>[N:1](=[C:2]=[C:3]([O:4][C:5]1([H:9])[C:6]([H:10])=[C:7]1[H:12])[H:8])[H:11]"
N        1.55323206       1.65213697       0.15772903
C        1.73512008       0.49506362       0.39747552
C        1.12359491      -0.72122810       0.55096254
O        0.03675210      -0.64507899       1.42646387
C       -1.01891385      -0.38573310       0.50324524
C       -0.90025058       0.72274751      -0.49891936
C       -0.51921188      -0.53077503      -0.87175618
H        1.62503394      -1.67459625       0.45618091
H       -1.95541358      -0.79244149       0.87114579
H       -1.59378697       1.46762966      -0.85793937
H        0.42588737       1.57944159      -0.39289761
H       -0.51204362      -1.16716638      -1.74169039
12
Frame=4 idx=011813 GeodesicLength=0.3706201127220193 rxn_smarts="[N:1]#[C:2][C@@:3]1([H:8])[O:4][C@@:5]2([H:9])[C:6]([H:10])([H:11])[C@@:7]12[H:12]>>[N:1](=[C:2]=[C:3]([O:4][C:5]1([H:9])[C:6]([H:10])=[C:7]1[H:12])[H:8])[H:11]"
N        1.58982409       1.64860186       0.15329259
C        1.75409419       0.49030010       0.40013045
C        1.11789296      -0.71670889       0.55018619
O        0.03192998      -0.62856591       1.42665852
C       -1.02576475      -0.38601235       0.50223275
C       -0.91060115       0.72398907      -0.49677665
C       -0.52030879      -0.52958749      -0.87143195
H        1.61286671      -1.67493078       0.46881135
H       -1.95262954      -0.81912309       0.86460983
H       -1.62233806       1.45265256      -0.85369327
H        0.43763127       1.59669126      -0.39659417
H       -0.51259691      -1.15730636      -1.74742563
12
Frame=5 idx=011813 GeodesicLength=0.4631954648241382 rxn_smarts="[N:1]#[C:2][C@@:3]1([H:8])[O:4][C@@:5]2([H:9])[C:6]([H:10])([H:11])[C@@:7]12[H:12]>>[N:1](=[C:2]=[C:3]([O:4][C:5]1([H:9])[C:6]([H:10])=[C:7]1[H:12])[H:8])[H:11]"
N        1.62716666       1.64440473       0.14883569
C        1.77320654       0.48518054       0.40309651
C        1.11208717      -0.71190048       0.54935647
O        0.02696356      -0.61165447       1.42659384
C       -1.03278193      -0.38641297       0.50112075
C       -0.92154409       0.72523897      -0.49467131
C       -0.52150301      -0.52818395      -0.87120343
H        1.60030907      -1.67490163       0.48156643
H       -1.94907138      -0.84586721       0.85821134
H       -1.65147940       1.43683751      -0.84957459
H        0.44969959       1.61434603      -0.40009590
H       -0.51305279      -1.14708706      -1.75323581
12
Frame=6 idx=011813 GeodesicLength=0.555760726755733 rxn_smarts="[N:1]#[C:2][C@@:3]1([H:8])[O:4][C@@:5]2([H:9])[C:6]([H:10])([H:11])[C@@:7]12[H:12]>>[N:1](=[C:2]=[C:3]([O:4][C:5]1([H:9])[C:6]([H:10])=[C:7]1[H:12])[H:8])[H:11]"
N        1.66527828       1.63950520       0.14439803
C        1.79245003       0.47969511       0.40640725
C        1.10617788      -0.70678259       0.54846207
O        0.02184625      -0.59432912       1.42624530
C       -1.03996147      -0.38693545       0.49991311
C       -0.93312570       0.72648145      -0.49261568
C       -0.52280265      -0.52655254      -0.87107273
H        1.58734532      -1.67447486       0.49441933
H       -1.94469657      -0.87266928       0.85197071
H       -1.68121469       1.42014710      -0.84559120
H        0.46212872       1.63241752      -0.40342569
H       -0.51342541      -1.13650254      -1.75911051
12
Frame=7 idx=011813 GeodesicLength=0.648325526184508 rxn_smarts="[N:1]#[C:2][C@@:3]1([H:8])[O:4][C@@:5]2([H:9])[C:6]([H:10])([H:11])[C@@:7]12[H:12]>>[N:1](=[C:2]=[C:3]([O:4][C:5]1([H:9])[C:6]([H:10])=[C:7]1[H:12])[H:8])[H:11]"
N        1.70417099       1.63386784       0.14002765
C        1.81181477       0.47384232       0.41008268
C        1.10016966      -0.70133306       0.54749013
O        0.01658049      -0.57658099       1.42559757
C       -1.04730219      -0.38759067       0.49860937
C       -0.94539442       0.72769573      -0.49061356
C       -0.52421671      -0.52469031      -0.87104331
H        1.57397813      -1.67362121       0.50734980
H       -1.93948443      -0.89951228       0.84589797
H       -1.71153520       1.40256707      -0.84173822
H        0.47495031       1.65091589      -0.40661598
H       -0.51373140      -1.12556032      -1.76504409
12
Frame=8 idx=011813 GeodesicLength=0.7408944640673646 rxn_smarts="[N:1]#[C:2][C@@:3]1([H:8])[O:4][C@@:5]2([H:9])[C:6]([H:10])([H:11])[C@@:7]12[H:12]>>[N:1](=[C:2]=[C:3]([O:4][C:5]1([H:9])[C:6]([H:10])=[C:7]1[H:12])[H:8])[H:11]"
N        1.74385986       1.62744992       0.13578174
C        1.83129117       0.46761340       0.41415716
C        1.09406643      -0.69552954       0.54642348
O        0.01116284      -0.55839312       1.42462661
C       -1.05479728      -0.38838547       0.49721346
C       -0.95840233       0.72885744      -0.48867947
C       -0.52575456      -0.52258636      -0.87111878
H        1.56019489      -1.67230600       0.52032485
H       -1.93339153      -0.92637849       0.84001929
H       -1.74244399       1.38406011      -0.83802488
H        0.48820511       1.66985532      -0.40969540
H       -0.51399062      -1.11425722      -1.77102804
12
Frame=9 idx=011813 GeodesicLength=0.8334933814773448 rxn_smarts="[N:1]#[C:2][C@@:3]1([H:8])[O:4][C@@:5]2([H:9])[C:6]([H:10])([H:11])[C@@:7]12[H:12]>>[N:1](=[C:2]=[C:3]([O:4][C:5]1([H:9])[C:6]([H:10])=[C:7]1[H:12])[H:8])[H:11]"
N        1.78436449       1.62021622       0.13170507
C        1.85088598       0.46101007       0.41865564
C        1.08788119      -0.68934291       0.54524460
O        0.00560491      -0.53971370       1.42332951
C       -1.06243241      -0.38934804       0.49573646
C       -0.97225078       0.72991036      -0.48678030
C       -0.52742140      -0.52021855      -0.87129426
H        1.54600608      -1.67052168       0.53333100
H       -1.92645322      -0.95326545       0.83428890
H       -1.77399009       1.36459796      -0.83441947
H        0.50201846       1.68926012      -0.41273873
H       -0.51421320      -1.10258440      -1.77705841
12
Frame=10 idx=011813 GeodesicLength=0.9260991418611388 rxn_smarts="[N:1]#[C:2][C@@:3]1([H:8])[O:4][C@@:5]2([H:9])[C:6]([H:10])([H:11])[C@@:7]12[H:12]>>[N:1](=[C:2]=[C:3]([O:4][C:5]1([H:9])[C:6]([H:10])=[C:7]1[H:12])[H:8])[H:11]"
N        1.82570508       1.61212617       0.12788547
C        1.87057211       0.45402102       0.42360938
C        1.08160890      -0.68275198       0.54393869
O       -0.00010410      -0.52056139       1.42166169
C       -1.07020875      -0.39046763       0.49417454
C       -0.98694558       0.73085714      -0.48495945
C       -0.52923464      -0.51758902      -0.87158167
H        1.53138930      -1.66821477       0.54632502
H       -1.91857228      -0.98014438       0.82878508
H       -1.80613975       1.34414435      -0.83094440
H        0.51636082       1.70913153      -0.41576630
H       -0.51443111      -1.09055105      -1.78312805
12
Frame=11 idx=011813 GeodesicLength=1.0187116045954039 rxn_smarts="[N:1]#[C:2][C@@:3]1([H:8])[O:4][C@@:5]2([H:9])[C:6]([H:10])([H:11])[C@@:7]12[H:12]>>[N:1](=[C:2]=[C:3]([O:4][C:5]1([H:9])[C:6]([H:10])=[C:7]1[H:12])[H:8])[H:11]"
N        1.86790628       1.60314633       0.12440226
C        1.89033995       0.44664216       0.42904613
C        1.07525293      -0.67573254       0.54248770
O       -0.00596446      -0.50091641       1.41959922
C       -1.07811995      -0.39175041       0.49253240
C       -1.00254159       0.73166723      -0.48322232
C       -0.53120642      -0.51468856      -0.87198448
H        1.51633215      -1.66535648       0.55927412
H       -1.90970885      -1.00700245       0.82352595
H       -1.83890639       1.32266758      -0.82759199
H        0.53128364       1.72948201      -0.41883589
H       -0.51466730      -1.07815845      -1.78923309
12
Frame=12 idx=011813 GeodesicLength=1.1113105148197544 rxn_smarts="[N:1]#[C:2][C@@:3]1([H:8])[O:4][C@@:5]2([H:9])[C:6]([H:10])([H:11])[C@@:7]12[H:12]>>[N:1](=[C:2]=[C:3]([O:4][C:5]1([H:9])[C:6]([H:10])=[C:7]1[H:12])[H:8])[H:11]"
N        1.91098814       1.59324327       0.12134658
C        1.91017938       0.43886811       0.43496948
C        1.06882352      -0.66825545       0.54086968
O       -0.01196529      -0.48075690       1.41712995
C       -1.08615521      -0.39320903       0.49081242
C       -1.01909483       0.73230945      -0.48156808
C       -0.53334941      -0.51151010      -0.87250622
H        1.50083764      -1.66192011       0.57215608
H       -1.89985297      -1.03382449       0.81851209
H       -1.87229683       1.30014587      -0.82434588
H        0.54683476       1.75032623      -0.42200686
H       -0.51494891      -1.06541683      -1.79536924
12
Frame=13 idx=011813 GeodesicLength=1.20389995664761 rxn_smarts="[N:1]#[C:2][C@@:3]1([H:8])[O:4][C@@:5]2([H:9])[C:6]([H:10])([H:11])[C@@:7]12[H:12]>>[N:1](=[C:2]=[C:3]([O:4][C:5]1([H:9])[C:6]([H:10])=[C:7]1[H:12])[H:8])[H:11]"
N        1.95499080       1.58237341       0.11881442
C        1.93007896       0.43069147       0.44142171
C        1.06232352      -0.66029231       0.53906214
O       -0.01811087      -0.46005633       1.41421696
C       -1.09430349      -0.39484931       0.48902320
C       -1.03666812       0.73274778      -0.48000569
C       -0.53567833      -0.50803741      -0.87315156
H        1.48488594      -1.65787378       0.58492458
H       -1.88894755      -1.06058677       0.81377420
H       -1.90633989       1.27651986      -0.82120213
H        0.56307236       1.77168005      -0.42534399
H       -0.51530334      -1.05231667      -1.80153385
12
Frame=14 idx=011813 GeodesicLength=1.2964798631775822 rxn_smarts="[N:1]#[C:2][C@@:3]1([H:8])[O:4][C@@:5]2([H:9])[C:6]([H:10])([H:11])[C@@:7]12[H:12]>>[N:1](=[C:2]=[C:3]([O:4][C:5]1([H:9])[C:6]([H:10])=[C:7]1[H:12])[H:8])[H:11]"
N        1.99996556       1.57047988       0.11690395
C        1.95002551       0.42210085       0.44843760
C        1.05575756      -0.65180534       0.53704187
O       -0.02440261      -0.43877750       1.41083065
C       -1.10255368      -0.39667848       0.48717111
C       -1.05533080       0.73294636      -0.47853720
C       -0.53820979      -0.50424801      -0.87392520
H        1.46846070      -1.65318062       0.59753990
H       -1.87694255      -1.08727503       0.80932588
H       -1.94107627       1.25172077      -0.81814553
H        0.58006617       1.79356292      -0.42891758
H       -0.51575980      -1.03884578      -1.80772544
12
Frame=15 idx=011813 GeodesicLength=1.3890329787648907 rxn_smarts="[N:1]#[C:2][C@@:3]1([H:8])[O:4][C@@:5]2([H:9])[C:6]([H:10])([H:11])[C@@:7]12[H:12]>>[N:1](=[C:2]=[C:3]([O:4][C:5]1([H:9])[C:6]([H:10])=[C:7]1[H:12])[H:8])[H:11]"
N        2.04595600       1.55751357       0.11572977
C        1.97000785       0.41308438       0.45603767
C        1.04913319      -0.64275659       0.53478109
O       -0.03083552      -0.41688234       1.40694386
C       -1.11089179      -0.39870488       0.48526283
C       -1.07515423       0.73286263      -0.47716423
C       -0.54096148      -0.50012155      -0.87483254
H        1.45155025      -1.64780851       0.60996002
H       -1.86380091      -1.11386607       0.80518105
H       -1.97653910       1.22568065      -0.81516003
H        0.59788633       1.81599603      -0.43279705
H       -0.51635059      -1.02499732      -1.81394243
12
Frame=16 idx=011813 GeodesicLength=1.4815480381017996 rxn_smarts="[N:1]#[C:2][C@@:3]1([H:8])[O:4][C@@:5]2([H:9])[C:6]([H:10])([H:11])[C@@:7]12[H:12]>>[N:1](=[C:2]=[C:3]([O:4][C:5]1([H:9])[C:6]([H:10])=[C:7]1[H:12])[H:8])[H:11]"
N        2.09302309       1.54340461       0.11539003
C        1.99000972       0.40363016       0.46426781
C        1.04245606      -0.63310281       0.53225253
O       -0.03741245      -0.39432572       1.40252126
C       -1.11930322      -0.40093728       0.48330747
C       -1.09621707       0.73245171      -0.47588282
C       -0.54395264      -0.49562737      -0.87587899
H        1.43413247      -1.64171914       0.62213583
H       -1.84946408      -1.14033590       0.80135555
H       -2.01277511       1.19830587      -0.81222962
H        0.61660959       1.83900390      -0.43705147
H       -0.51710636      -1.01074802      -1.82018758
