12
Frame=0 idx=000547 GeodesicLength=0.0 rxn_smarts="[C:1]1([H:7])([H:8])[C@:2]2([H:9])[O:3][C:4]([H:10])([H:11])[O:5][C@:6]12[H:12]>>[C:1]1([H:7])([H:8])[C-:2]2[O:3][C:4]([H:11])=[O+:5][C@@:6]12[H:12].[H:9][H:10]"
C        1.53383523       0.40722079       0.32917080
C        0.48131308      -0.69418205       0.47097942
O       -0.65238636      -0.11291099       1.20370918
C       -1.41167361       0.30754513       0.26372285
O       -0.75670361       0.91657443      -0.72821081
C        0.51230081       0.23862850      -0.73090451
H        2.54273557       0.10838207       0.07480199
H        1.46560943       1.23369203       1.02246413
H       -0.59353325      -1.56585935      -0.22275948
H       -1.44434417      -1.29661958      -0.41953861
H       -2.43992444       0.58869903       0.45324983
H        0.76277134      -0.13117003      -1.71668484
12
Frame=1 idx=000547 GeodesicLength=0.06037008969195134 rxn_smarts="[C:1]1([H:7])([H:8])[C@:2]2([H:9])[O:3][C:4]([H:10])([H:11])[O:5][C@:6]12[H:12]>>[C:1]1([H:7])([H:8])[C-:2]2[O:3][C:4]([H:11])=[O+:5][C@@:6]12[H:12].[H:9][H:10]"
C        1.53249217       0.40682462       0.33058038
C        0.48309096      -0.69694854       0.46753672
O       -0.65222227      -0.11354362       1.20336159
C       -1.41449707       0.30393922       0.26002654
O       -0.75340215       0.91996279      -0.72462082
C        0.51380411       0.23881831      -0.73233133
H        2.54267880       0.10828443       0.08099494
H        1.45927268       1.23902535       1.01680012
H       -0.58707223      -1.58425083      -0.22254469
H       -1.45305573      -1.30240898      -0.41819609
H       -2.43575698       0.60400926       0.45904642
H        0.76466769      -0.12371202      -1.72065376
12
Frame=2 idx=000547 GeodesicLength=0.12066297564526032 rxn_smarts="[C:1]1([H:7])([H:8])[C@:2]2([H:9])[O:3][C:4]([H:10])([H:11])[O:5][C@:6]12[H:12]>>[C:1]1([H:7])([H:8])[C-:2]2[O:3][C:4]([H:11])=[O+:5][C@@:6]12[H:12].[H:9][H:10]"
C        1.53110873       0.40643759       0.33198337
C        0.48481078      -0.69966209       0.46405561
O       -0.65212645      -0.11410430       1.20296942
C       -1.41737573       0.30045856       0.25627373
O       -0.75012223       0.92339877      -0.72100625
C        0.51527411       0.23908000      -0.73377183
H        2.54255016       0.10816875       0.08717886
H        1.45302330       1.24422234       1.01116819
H       -0.58032393      -1.60286460      -0.22216821
H       -1.46202687      -1.30810144      -0.41679192
H       -2.43130460       0.61911218       0.46470531
H        0.76651274      -0.11614578      -1.72459628
12
Frame=3 idx=000547 GeodesicLength=0.18089440057456657 rxn_smarts="[C:1]1([H:7])([H:8])[C@:2]2([H:9])[O:3][C:4]([H:10])([H:11])[O:5][C@:6]12[H:12]>>[C:1]1([H:7])([H:8])[C-:2]2[O:3][C:4]([H:11])=[O+:5][C@@:6]12[H:12].[H:9][H:10]"
C        1.52968906       0.40605699       0.33337757
C        0.48647341      -0.70232219       0.46053416
O       -0.65209512      -0.11459400       1.20253544
C       -1.42030189       0.29711879       0.25247149
O       -0.74685960       0.92688789      -0.71736635
C        0.51671253       0.23941512      -0.73522633
H        2.54235268       0.10802984       0.09334962
H        1.44686748       1.24928282       1.00557023
H       -0.57326676      -1.62170843      -0.22161695
H       -1.47128470      -1.31367041      -0.41532685
H       -2.42659250       0.63397477       0.47021036
H        0.76830540      -0.10847120      -1.72851239
12
Frame=4 idx=000547 GeodesicLength=0.24112604569691132 rxn_smarts="[C:1]1([H:7])([H:8])[C@:2]2([H:9])[O:3][C:4]([H:10])([H:11])[O:5][C@:6]12[H:12]>>[C:1]1([H:7])([H:8])[C-:2]2[O:3][C:4]([H:11])=[O+:5][C@@:6]12[H:12].[H:9][H:10]"
C        1.52823632       0.40568105       0.33476074
C        0.48808114      -0.70492950       0.45697058
O       -0.65212549      -0.11501883       1.20206126
C       -1.42326763       0.29393298       0.24862644
O       -0.74360985       0.93043313      -0.71370141
C        0.51812115       0.23982287      -0.73669582
H        2.54208934       0.10786629       0.09950394
H        1.44080792       1.25420777       1.00000743
H       -0.56586646      -1.64079842      -0.22087493
H       -1.48086682      -1.31908246      -0.41380739
H       -2.42164538       0.64857464       0.47555147
H        0.77004577      -0.10068951      -1.73240232
12
Frame=5 idx=000547 GeodesicLength=0.30136015826976253 rxn_smarts="[C:1]1([H:7])([H:8])[C@:2]2([H:9])[O:3][C:4]([H:10])([H:11])[O:5][C@:6]12[H:12]>>[C:1]1([H:7])([H:8])[C-:2]2[O:3][C:4]([H:11])=[O+:5][C@@:6]12[H:12].[H:9][H:10]"
C        1.52675370       0.40530724       0.33613073
C        0.48963458      -0.70748413       0.45336195
O       -0.65221459      -0.11538188       1.20154856
C       -1.42626622       0.29091404       0.24474406
O       -0.74036938       0.93403918      -0.71001139
C        0.51950140       0.24030478      -0.73818121
H        2.54176268       0.10767330       0.10563793
H        1.43484885       1.25899742       0.99448329
H       -0.55809313      -1.66014605      -0.21992818
H       -1.49080136      -1.32431319      -0.41223707
H       -2.41648939       0.66289085       0.48071841
H        0.77173285      -0.09280157      -1.73626708
12
Frame=6 idx=000547 GeodesicLength=0.36162572041450647 rxn_smarts="[C:1]1([H:7])([H:8])[C@:2]2([H:9])[O:3][C:4]([H:10])([H:11])[O:5][C@:6]12[H:12]>>[C:1]1([H:7])([H:8])[C-:2]2[O:3][C:4]([H:11])=[O+:5][C@@:6]12[H:12].[H:9][H:10]"
C        1.52524348       0.40493400       0.33748553
C        0.49113561      -0.70998739       0.44970555
O       -0.65236034      -0.11569010       1.20099807
C       -1.42929120       0.28807134       0.24082901
O       -0.73713451       0.93770801      -0.70629720
C        0.52085468       0.24085998      -0.73968380
H        2.54137508       0.10744980       0.11174890
H        1.42899144       1.26365222       0.98899866
H       -0.54990819      -1.67977094      -0.21876020
H       -1.50112394      -1.32933188      -0.41062442
H       -2.41114975       0.67691255       0.48570700
H        0.77336763      -0.08480758      -1.74010710
12
Frame=7 idx=000547 GeodesicLength=0.4219252810557731 rxn_smarts="[C:1]1([H:7])([H:8])[C@:2]2([H:9])[O:3][C:4]([H:10])([H:11])[O:5][C@:6]12[H:12]>>[C:1]1([H:7])([H:8])[C-:2]2[O:3][C:4]([H:11])=[O+:5][C@@:6]12[H:12].[H:9][H:10]"
C        1.52370721       0.40455934       0.33882312
C        0.49258500      -0.71244042       0.44599832
O       -0.65256135      -0.11595051       1.20041006
C       -1.43233746       0.28541402       0.23688555
O       -0.73390229       0.94144177      -0.70255978
C        0.52218180       0.24148784      -0.74120502
H        2.54092815       0.10719379       0.11783412
H        1.42323592       1.26817270       0.98355579
H       -0.54127107      -1.69969114      -0.21735555
H       -1.51186792      -1.33411229      -0.40897759
H       -2.40564825       0.69063295       0.49051430
H        0.77495026      -0.07670804      -1.74392332
12
Frame=8 idx=000547 GeodesicLength=0.48229444820163614 rxn_smarts="[C:1]1([H:7])([H:8])[C@:2]2([H:9])[O:3][C:4]([H:10])([H:11])[O:5][C@:6]12[H:12]>>[C:1]1([H:7])([H:8])[C-:2]2[O:3][C:4]([H:11])=[O+:5][C@@:6]12[H:12].[H:9][H:10]"
C        1.52214537       0.40418206       0.34014155
C        0.49398445      -0.71484555       0.44223661
O       -0.65281750      -0.11617457       1.19978328
C       -1.43539982       0.28294922       0.23291664
O       -0.73066991       0.94524093      -0.69880118
C        0.52348356       0.24218671      -0.74274691
H        2.54042316       0.10690674       0.12389187
H        1.41757922       1.27255974       0.97815724
H       -0.53212693      -1.71993341      -0.21569593
H       -1.52307666      -1.33862167      -0.40730996
H       -2.40000621       0.70405605       0.49514426
H        0.77648126      -0.06850623      -1.74771747
12
Frame=9 idx=000547 GeodesicLength=0.542725503811346 rxn_smarts="[C:1]1([H:7])([H:8])[C@:2]2([H:9])[O:3][C:4]([H:10])([H:11])[O:5][C@:6]12[H:12]>>[C:1]1([H:7])([H:8])[C-:2]2[O:3][C:4]([H:11])=[O+:5][C@@:6]12[H:12].[H:9][H:10]"
C        1.52055791       0.40380107       0.34143896
C        0.49533495      -0.71720457       0.43841659
O       -0.65312883      -0.11637261       1.19911653
C       -1.43847467       0.28068296       0.22892461
O       -0.72743533       0.94910611      -0.69502304
C        0.52476010       0.24295524      -0.74431141
H        2.53986076       0.10658766       0.12991983
H        1.41201853       1.27681444       0.97280630
H       -0.52242348      -1.74052040      -0.21376380
H       -1.53478936      -1.34283153      -0.40563407
H       -2.39424148       0.71718626       0.49960048
H        0.77796092      -0.06020462      -1.75149098
12
Frame=10 idx=000547 GeodesicLength=0.6032252661050451 rxn_smarts="[C:1]1([H:7])([H:8])[C@:2]2([H:9])[O:3][C:4]([H:10])([H:11])[O:5][C@:6]12[H:12]>>[C:1]1([H:7])([H:8])[C-:2]2[O:3][C:4]([H:11])=[O+:5][C@@:6]12[H:12].[H:9][H:10]"
C        1.51894369       0.40341409       0.34271357
C        0.49663615      -0.71952081       0.43453301
O       -0.65349714      -0.11655689       1.19840687
C       -1.44155922       0.27862111       0.22491047
O       -0.72419675       0.95303801      -0.69122776
C        0.52601115       0.24379203      -0.74590122
H        2.53924051       0.10623846       0.13591679
H        1.40654933       1.28093485       0.96750515
H       -0.51209581      -1.76148327      -0.21153629
H       -1.54705049      -1.34671015      -0.40396527
H       -2.38837088       0.73003647       0.50389069
H        0.77938944      -0.05180389      -1.75524601
12
Frame=11 idx=000547 GeodesicLength=0.6637785386829937 rxn_smarts="[C:1]1([H:7])([H:8])[C@:2]2([H:9])[O:3][C:4]([H:10])([H:11])[O:5][C@:6]12[H:12]>>[C:1]1([H:7])([H:8])[C-:2]2[O:3][C:4]([H:11])=[O+:5][C@@:6]12[H:12].[H:9][H:10]"
C        1.51730081       0.40301946       0.34396331
C        0.49788743      -0.72179700       0.43058153
O       -0.65392490      -0.11674008       1.19765170
C       -1.44465205       0.27676943       0.22087617
O       -0.72095279       0.95703651      -0.68741775
C        0.52723549       0.24469429      -0.74751877
H        2.53856148       0.10585931       0.14188106
H        1.40116567       1.28492117       0.96225636
H       -0.50107661      -1.78285294      -0.20899123
H       -1.55990461      -1.35022547      -0.40232213
H       -2.38240638       0.74262111       0.50802408
H        0.78076647      -0.04330579      -1.75898432
12
Frame=12 idx=000547 GeodesicLength=0.7243716034665042 rxn_smarts="[C:1]1([H:7])([H:8])[C@:2]2([H:9])[O:3][C:4]([H:10])([H:11])[O:5][C@:6]12[H:12]>>[C:1]1([H:7])([H:8])[C-:2]2[O:3][C:4]([H:11])=[O+:5][C@@:6]12[H:12].[H:9][H:10]"
C        1.51562645       0.40261514       0.34518648
C        0.49908778      -0.72403672       0.42655609
O       -0.65441550      -0.11693708       1.19684662
C       -1.44775234       0.27513305       0.21682170
O       -0.71770267       0.96110211      -0.68359527
C        0.52843172       0.24566049      -0.74916705
H        2.53782205       0.10545062       0.14781115
H        1.39586028       1.28877199       0.95706433
H       -0.48928675      -1.80466159      -0.20610435
H       -1.57340326      -1.35334231      -0.40072187
H       -2.37635827       0.75495824       0.51201096
H        0.78209052      -0.03471396      -1.76270877
12
Frame=13 idx=000547 GeodesicLength=0.7849892407785143 rxn_smarts="[C:1]1([H:7])([H:8])[C@:2]2([H:9])[O:3][C:4]([H:10])([H:11])[O:5][C@:6]12[H:12]>>[C:1]1([H:7])([H:8])[C-:2]2[O:3][C:4]([H:11])=[O+:5][C@@:6]12[H:12].[H:9][H:10]"
C        1.51391663       0.40219894       0.34638094
C        0.50023549      -0.72624416       0.42245062
O       -0.65497395      -0.11716448       1.19598682
C       -1.45086020       0.27371710       0.21274734
O       -0.71444571       0.96523409      -0.67976365
C        0.52959753       0.24668697      -0.75084963
H        2.53701964       0.10501404       0.15370609
H        1.39062398       1.29248574       0.95193179
H       -0.47663820      -1.82694807      -0.20284673
H       -1.58760216      -1.35602192      -0.39918851
H       -2.37023405       0.76707229       0.51586679
H        0.78336101      -0.02603052      -1.76642187
12
Frame=14 idx=000547 GeodesicLength=0.8455963220129038 rxn_smarts="[C:1]1([H:7])([H:8])[C@:2]2([H:9])[O:3][C:4]([H:10])([H:11])[O:5][C@:6]12[H:12]>>[C:1]1([H:7])([H:8])[C-:2]2[O:3][C:4]([H:11])=[O+:5][C@@:6]12[H:12].[H:9][H:10]"
C        1.51216676       0.40176780       0.34754459
C        0.50132756      -0.72842345       0.41825863
O       -0.65560607      -0.11743888       1.19506697
C       -1.45397700       0.27252804       0.20865367
O       -0.71118181       0.96943263      -0.67592557
C        0.53073001       0.24777078      -0.75256996
H        2.53615070       0.10454961       0.15956466
H        1.38544742       1.29605954       0.94686236
H       -0.46303640      -1.84974970      -0.19918867
H       -1.60255861      -1.35822488      -0.39774547
H       -2.36403817       0.77898699       0.51960570
H        0.78457561      -0.01725847      -1.77012691
12
Frame=15 idx=000547 GeodesicLength=0.9061579184524724 rxn_smarts="[C:1]1([H:7])([H:8])[C@:2]2([H:9])[O:3][C:4]([H:10])([H:11])[O:5][C@:6]12[H:12]>>[C:1]1([H:7])([H:8])[C-:2]2[O:3][C:4]([H:11])=[O+:5][C@@:6]12[H:12].[H:9][H:10]"
C        1.51037102       0.40131787       0.34867515
C        0.50235989      -0.73057992       0.41397134
O       -0.65631926      -0.11777939       1.19407947
C       -1.45710496       0.27157283       0.20453978
O       -0.70791094       0.97369869      -0.67208436
C        0.53182561       0.24890924      -0.75433258
H        2.53521075       0.10405706       0.16538565
H        1.38031948       1.29948892       0.94186064
H       -0.44837417      -1.87310850      -0.19509391
H       -1.61833610      -1.35990815      -0.39641811
H       -2.35777292       0.79073077       0.52324459
H        0.78573160      -0.00839942      -1.77382766
12
Frame=16 idx=000547 GeodesicLength=0.9666193283175799 rxn_smarts="[C:1]1([H:7])([H:8])[C@:2]2([H:9])[O:3][C:4]([H:10])([H:11])[O:5][C@:6]12[H:12]>>[C:1]1([H:7])([H:8])[C-:2]2[O:3][C:4]([H:11])=[O+:5][C@@:6]12[H:12].[H:9][H:10]"
C        1.50852306       0.40084434       0.34977021
C        0.50332688      -0.73271881       0.40958016
O       -0.65712171      -0.11820403       1.19301732
C       -1.46024760       0.27085954       0.20040551
O       -0.70463361       0.97803383      -0.66824247
C        0.53287972       0.25009964      -0.75614162
H        2.53419439       0.10353358       0.17116729
H        1.37522969       1.30276874       0.93693117
H       -0.43253792      -1.89706454      -0.19052521
H       -1.63499814      -1.36102707      -0.39523390
H       -2.35143948       0.80233087       0.52679983
H        0.78682473       0.00054390      -1.77752829
