15
Frame=0 idx=006066 GeodesicLength=0.0 rxn_smarts="[C:1]([C:2]([C:3]([C:4](=[O:5])[N:6]([H:14])[H:15])([H:12])[H:13])([H:10])[H:11])([H:7])([H:8])[H:9]>>[C:1]([C:2]([C:3]([O+:5]=[C-:4][N:6]([H:14])[H:15])([H:12])[H:13])([H:10])[H:11])([H:7])([H:8])[H:9]"
C        2.33012496       0.10732359      -0.41828202
C        0.84447114       0.24449429      -0.74691278
C        0.00428014      -0.05073223       0.46016204
C       -1.79442854       0.03955465      -0.05866733
O       -1.38596096       1.11904309       0.52272934
N       -2.88415955      -0.51346110       0.50329464
H        2.93609652       0.29310774      -1.30606092
H        2.57228118      -0.89580711      -0.05890617
H        2.63548417       0.82208253       0.34890528
H        0.62662710       1.26197957      -1.07355930
H        0.56046091      -0.42285762      -1.56067809
H       -0.11863415      -1.11073758       0.68332598
H        0.35936484       0.44563144       1.36590334
H       -3.34871844      -0.04675013       1.27371981
H       -3.33728926      -1.29287112       0.06502616
15
Frame=1 idx=006066 GeodesicLength=0.020662053353197513 rxn_smarts="[C:1]([C:2]([C:3]([C:4](=[O:5])[N:6]([H:14])[H:15])([H:12])[H:13])([H:10])[H:11])([H:7])([H:8])[H:9]>>[C:1]([C:2]([C:3]([O+:5]=[C-:4][N:6]([H:14])[H:15])([H:12])[H:13])([H:10])[H:11])([H:7])([H:8])[H:9]"
C        2.33032718       0.10124000      -0.41894617
C        0.84600010       0.25498953      -0.74471463
C        0.00055214      -0.04606187       0.45865155
C       -1.79628909       0.03005273      -0.05899620
O       -1.39285636       1.11966050       0.50260704
N       -2.88549447      -0.51590209       0.50998623
H        2.93796070       0.29362978      -1.30418630
H        2.56383834      -0.90855656      -0.07274086
H        2.64186663       0.80307327       0.35769812
H        0.63731557       1.27738851      -1.06223383
H        0.55657833      -0.40088828      -1.56614223
H       -0.10885779      -1.10813474       0.68026409
H        0.35554513       0.44655230       1.36668722
H       -3.37034416      -0.02362295       1.25104269
H       -3.31614224      -1.32342012       0.10102328
15
Frame=2 idx=006066 GeodesicLength=0.041382988406220816 rxn_smarts="[C:1]([C:2]([C:3]([C:4](=[O:5])[N:6]([H:14])[H:15])([H:12])[H:13])([H:10])[H:11])([H:7])([H:8])[H:9]>>[C:1]([C:2]([C:3]([O+:5]=[C-:4][N:6]([H:14])[H:15])([H:12])[H:13])([H:10])[H:11])([H:7])([H:8])[H:9]"
C        2.33039929       0.09513400      -0.41967343
C        0.84755423       0.26552612      -0.74238433
C       -0.00325163      -0.04152452       0.45711188
C       -1.79808832       0.02060279      -0.05946443
O       -1.39974297       1.11997300       0.48218763
N       -2.88692404      -0.51799585       0.51635923
H        2.93979764       0.29433015      -1.30219801
H        2.55516708      -0.92118701      -0.08701938
H        2.64797901       0.78361227       0.36648544
H        0.64810963       1.29277277      -1.05043334
H        0.55280815      -0.37853989      -1.57150321
H       -0.09921950      -1.10551637       0.67703985
H        0.35160118       0.44723367       1.36750131
H       -3.39215131      -0.00149792       1.22625487
H       -3.29403844      -1.35292323       0.13973593
15
Frame=3 idx=006066 GeodesicLength=0.0619138228563743 rxn_smarts="[C:1]([C:2]([C:3]([C:4](=[O:5])[N:6]([H:14])[H:15])([H:12])[H:13])([H:10])[H:11])([H:7])([H:8])[H:9]>>[C:1]([C:2]([C:3]([O+:5]=[C-:4][N:6]([H:14])[H:15])([H:12])[H:13])([H:10])[H:11])([H:7])([H:8])[H:9]"
C        2.33040353       0.08922180      -0.42047624
C        0.84913194       0.27581469      -0.73991358
C       -0.00699885      -0.03716053       0.45570809
C       -1.79971364       0.01095363      -0.05987332
O       -1.40658573       1.11980496       0.46156013
N       -2.88832392      -0.52007617       0.52255544
H        2.94156084       0.29515584      -1.30024122
H        2.54660708      -0.93326356      -0.10128847
H        2.65375565       0.76437341       0.37489917
H        0.65874286       1.30766948      -1.03854574
H        0.54925993      -0.35650779      -1.57647392
H       -0.08950919      -1.10287914       0.67407610
H        0.34770730       0.44786845       1.36836908
H       -3.41315179       0.01856708       1.20063430
H       -3.27288600      -1.37954215       0.17901018
15
Frame=4 idx=006066 GeodesicLength=0.0822521887068936 rxn_smarts="[C:1]([C:2]([C:3]([C:4](=[O:5])[N:6]([H:14])[H:15])([H:12])[H:13])([H:10])[H:11])([H:7])([H:8])[H:9]>>[C:1]([C:2]([C:3]([O+:5]=[C-:4][N:6]([H:14])[H:15])([H:12])[H:13])([H:10])[H:11])([H:7])([H:8])[H:9]"
C        2.33038569       0.08355789      -0.42132779
C        0.85076421       0.28581584      -0.73732722
C       -0.01065792      -0.03297473       0.45442756
C       -1.80115149       0.00087299      -0.06018333
O       -1.41340911       1.11906010       0.44047815
N       -2.88963070      -0.52228488       0.52879586
H        2.94330385       0.29619810      -1.29827661
H        2.53825007      -0.94473098      -0.11550060
H        2.65920017       0.74544457       0.38297409
H        0.66920163       1.32202195      -1.02666595
H        0.54599594      -0.33490045      -1.58105280
H       -0.07960419      -1.10021166       0.67147554
H        0.34382948       0.44857997       1.36923900
H       -3.43294587       0.03649322       1.17482758
H       -3.25353178      -1.40294193       0.21811652
15
Frame=5 idx=006066 GeodesicLength=0.10272618179342244 rxn_smarts="[C:1]([C:2]([C:3]([C:4](=[O:5])[N:6]([H:14])[H:15])([H:12])[H:13])([H:10])[H:11])([H:7])([H:8])[H:9]>>[C:1]([C:2]([C:3]([O+:5]=[C-:4][N:6]([H:14])[H:15])([H:12])[H:13])([H:10])[H:11])([H:7])([H:8])[H:9]"
C        2.33023893       0.07787748      -0.42239789
C        0.85236402       0.29588000      -0.73453463
C       -0.01428437      -0.02903408       0.45326871
C       -1.80245894      -0.00899778      -0.06032893
O       -1.42004392       1.11794227       0.41977145
N       -2.89098482      -0.52412984       0.53484572
H        2.94488820       0.29743926      -1.29643160
H        2.52972360      -0.95607573      -0.13037648
H        2.66448533       0.72605105       0.39084782
H        0.67964066       1.33639446      -1.01409598
H        0.54268648      -0.31282082      -1.58546685
H       -0.06979567      -1.09767700       0.66867938
H        0.34012411       0.44872843       1.37032725
H       -3.45419286       0.05398448       1.14539726
H       -3.23239075      -1.42556216       0.26049476
15
Frame=6 idx=006066 GeodesicLength=0.12270585534695838 rxn_smarts="[C:1]([C:2]([C:3]([C:4](=[O:5])[N:6]([H:14])[H:15])([H:12])[H:13])([H:10])[H:11])([H:7])([H:8])[H:9]>>[C:1]([C:2]([C:3]([O+:5]=[C-:4][N:6]([H:14])[H:15])([H:12])[H:13])([H:10])[H:11])([H:7])([H:8])[H:9]"
C        2.33008966       0.07258935      -0.42328470
C        0.85402876       0.30537331      -0.73174599
C       -0.01792917      -0.02511059       0.45214623
C       -1.80362467      -0.01938374      -0.06068092
O       -1.42677574       1.11631637       0.39790934
N       -2.89235422      -0.52611703       0.54052755
H        2.94655261       0.29862773      -1.29438941
H        2.52156867      -0.96646910      -0.14429962
H        2.66924425       0.70767698       0.39827412
H        0.68977520       1.34977327      -1.00223024
H        0.53988260      -0.29195629      -1.58934032
H       -0.05988378      -1.09486576       0.66657129
H        0.33619865       0.44947840       1.37119317
H       -3.47131073       0.06764977       1.12005155
H       -3.21546209      -1.44358266       0.29929794
15
Frame=7 idx=006066 GeodesicLength=0.1426286118014199 rxn_smarts="[C:1]([C:2]([C:3]([C:4](=[O:5])[N:6]([H:14])[H:15])([H:12])[H:13])([H:10])[H:11])([H:7])([H:8])[H:9]>>[C:1]([C:2]([C:3]([O+:5]=[C-:4][N:6]([H:14])[H:15])([H:12])[H:13])([H:10])[H:11])([H:7])([H:8])[H:9]"
C        2.32984124       0.06739349      -0.42430273
C        0.85565924       0.31475048      -0.72880120
C       -0.02155035      -0.02138111       0.45115833
C       -1.80465536      -0.02961877      -0.06092828
O       -1.43333568       1.11431131       0.37623107
N       -2.89378729      -0.52784387       0.54587374
H        2.94808286       0.29988000      -1.29244949
H        2.51340373      -0.97651615      -0.15839317
H        2.67378211       0.68931279       0.40536364
H        0.69976090       1.36289693      -0.99005841
H        0.53713050      -0.27111226      -1.59293263
H       -0.05006596      -1.09210297       0.66448188
H        0.33241510       0.44989041       1.37221159
H       -3.48857270       0.08015867       1.09319385
H       -3.19810833      -1.46001895       0.33935181
15
Frame=8 idx=006066 GeodesicLength=0.16240103528048566 rxn_smarts="[C:1]([C:2]([C:3]([C:4](=[O:5])[N:6]([H:14])[H:15])([H:12])[H:13])([H:10])[H:11])([H:7])([H:8])[H:9]>>[C:1]([C:2]([C:3]([O+:5]=[C-:4][N:6]([H:14])[H:15])([H:12])[H:13])([H:10])[H:11])([H:7])([H:8])[H:9]"
C        2.32957426       0.06242819      -0.42536506
C        0.85731016       0.32385533      -0.72576296
C       -0.02510207      -0.01780871       0.45029112
C       -1.80552225      -0.04012772      -0.06103877
O       -1.43980074       1.11176343       0.35419270
N       -2.89518135      -0.52957493       0.55118770
H        2.94957541       0.30126769      -1.29053268
H        2.50544089      -0.98600491      -0.17234093
H        2.67805219       0.67132262       0.41209707
H        0.70953129       1.37552380      -0.97793094
H        0.53459109      -0.25071261      -1.59616932
H       -0.04013153      -1.08929494       0.66271608
H        0.32868443       0.45033740       1.37324941
H       -3.50463768       0.09096802       1.06683732
H       -3.18238414      -1.47394267       0.37856927
15
Frame=9 idx=006066 GeodesicLength=0.18215222633303008 rxn_smarts="[C:1]([C:2]([C:3]([C:4](=[O:5])[N:6]([H:14])[H:15])([H:12])[H:13])([H:10])[H:11])([H:7])([H:8])[H:9]>>[C:1]([C:2]([C:3]([O+:5]=[C-:4][N:6]([H:14])[H:15])([H:12])[H:13])([H:10])[H:11])([H:7])([H:8])[H:9]"
C        2.32922070       0.05753418      -0.42651196
C        0.85894871       0.33287053      -0.72259359
C       -0.02865982      -0.01436584       0.44950473
C       -1.80627943      -0.05060721      -0.06112812
O       -1.44615871       1.10881055       0.33202570
N       -2.89662789      -0.53111784       0.55618710
H        2.95099118       0.30275554      -1.28862339
H        2.49743077      -0.99520702      -0.18647996
H        2.68210754       0.65324704       0.41861234
H        0.71920739       1.38793187      -0.96552757
H        0.53213761      -0.23030194      -1.59916700
H       -0.03025924      -1.08645498       0.66101660
H        0.32498192       0.45062242       1.37436139
H       -3.52043531       0.10050588       1.03964082
H       -3.16660541      -1.48622318       0.41868292
15
Frame=10 idx=006066 GeodesicLength=0.20196079629980834 rxn_smarts="[C:1]([C:2]([C:3]([C:4](=[O:5])[N:6]([H:14])[H:15])([H:12])[H:13])([H:10])[H:11])([H:7])([H:8])[H:9]>>[C:1]([C:2]([C:3]([O+:5]=[C-:4][N:6]([H:14])[H:15])([H:12])[H:13])([H:10])[H:11])([H:7])([H:8])[H:9]"
C        2.32879881       0.05271054      -0.42779005
C        0.86058720       0.34184729      -0.71927195
C       -0.03218519      -0.01111178       0.44880957
C       -1.80691170      -0.06115135      -0.06110523
O       -1.45238172       1.10537445       0.30977779
N       -2.89809628      -0.53249570       0.56106081
H        2.95233882       0.30447950      -1.28673595
H        2.48937799      -1.00416454      -0.20103238
H        2.68599132       0.63494313       0.42494918
H        0.72880872       1.40020117      -0.95270542
H        0.52975032      -0.20972784      -1.60195690
H       -0.02037734      -1.08365917       0.65932822
H        0.32134578       0.45063965       1.37558246
H       -3.53643266       0.10898730       1.01078451
H       -3.15061406      -1.49687265       0.46030534
15
Frame=11 idx=006066 GeodesicLength=0.22184811884125577 rxn_smarts="[C:1]([C:2]([C:3]([C:4](=[O:5])[N:6]([H:14])[H:15])([H:12])[H:13])([H:10])[H:11])([H:7])([H:8])[H:9]>>[C:1]([C:2]([C:3]([O+:5]=[C-:4][N:6]([H:14])[H:15])([H:12])[H:13])([H:10])[H:11])([H:7])([H:8])[H:9]"
C        2.32833600       0.04799194      -0.42919750
C        0.86224376       0.35077007      -0.71580222
C       -0.03564914      -0.00805546       0.44820672
C       -1.80740095      -0.07192779      -0.06091505
O       -1.45848166       1.10135629       0.28729262
N       -2.89954408      -0.53377357       0.56598001
H        2.95364388       0.30650943      -1.28485224
H        2.48133143      -1.01283392      -0.21601248
H        2.68971264       0.61643346       0.43111210
H        0.73832635       1.41230392      -0.93948579
H        0.52745910      -0.18902540      -1.60452790
H       -0.01039120      -1.08090087       0.65772125
H        0.31776229       0.45046367       1.37688672
H       -3.55240794       0.11629655       0.98049496
H       -3.13494048      -1.50560830       0.50309880
15
Frame=12 idx=006066 GeodesicLength=0.2420046468855276 rxn_smarts="[C:1]([C:2]([C:3]([C:4](=[O:5])[N:6]([H:14])[H:15])([H:12])[H:13])([H:10])[H:11])([H:7])([H:8])[H:9]>>[C:1]([C:2]([C:3]([O+:5]=[C-:4][N:6]([H:14])[H:15])([H:12])[H:13])([H:10])[H:11])([H:7])([H:8])[H:9]"
C        2.32771264       0.04316008      -0.43077242
C        0.86387904       0.35989123      -0.71211606
C       -0.03919439      -0.00520108       0.44759845
C       -1.80784346      -0.08250021      -0.06086761
O       -1.46446679       1.09697514       0.26488086
N       -2.90113670      -0.53472171       0.57034483
H        2.95486849       0.30880327      -1.28288669
H        2.47291140      -1.02154190      -0.23189804
H        2.69327014       0.59704024       0.43729383
H        0.74794237       1.42459899      -0.92535918
H        0.52514274      -0.16750766      -1.60703280
H       -0.00061177      -1.07825836       0.65573391
H        0.31413848       0.44970789       1.37834435
H       -3.56949969       0.12237250       0.94661322
H       -3.11711250      -1.51281841       0.55012334
15
Frame=13 idx=006066 GeodesicLength=0.26200389967531124 rxn_smarts="[C:1]([C:2]([C:3]([C:4](=[O:5])[N:6]([H:14])[H:15])([H:12])[H:13])([H:10])[H:11])([H:7])([H:8])[H:9]>>[C:1]([C:2]([C:3]([O+:5]=[C-:4][N:6]([H:14])[H:15])([H:12])[H:13])([H:10])[H:11])([H:7])([H:8])[H:9]"
C        2.32709631       0.03860087      -0.43238853
C        0.86552271       0.36869621      -0.70835518
C       -0.04264409      -0.00248600       0.44713836
C       -1.80810515      -0.09342313      -0.06060311
O       -1.47031486       1.09195016       0.24203432
N       -2.90266382      -0.53571068       0.57476987
H        2.95605915       0.31125898      -1.28094950
H        2.46475451      -1.02963833      -0.24757307
H        2.69658898       0.57812459       0.44308107
H        0.75726471       1.43633444      -0.91138478
H        0.52302750      -0.14658173      -1.60914971
H        0.00934771      -1.07553430       0.65418751
H        0.31059582       0.44909344       1.37980691
H       -3.58499980       0.12667844       0.91408350
H       -3.10152967      -1.51736295       0.59530235
15
Frame=14 idx=006066 GeodesicLength=0.28211033930186435 rxn_smarts="[C:1]([C:2]([C:3]([C:4](=[O:5])[N:6]([H:14])[H:15])([H:12])[H:13])([H:10])[H:11])([H:7])([H:8])[H:9]>>[C:1]([C:2]([C:3]([O+:5]=[C-:4][N:6]([H:14])[H:15])([H:12])[H:13])([H:10])[H:11])([H:7])([H:8])[H:9]"
C        2.32638258       0.03410217      -0.43410743
C        0.86714758       0.37748610      -0.70443483
C       -0.04613553      -0.00002107       0.44669493
C       -1.80829416      -0.10428800      -0.06042635
O       -1.47600456       1.08645918       0.21914552
N       -2.90432978      -0.53648782       0.57867123
H        2.95719756       0.31398090      -1.27893649
H        2.45649860      -1.03748231      -0.26370235
H        2.69967973       0.55888889       0.44873396
H        0.76649742       1.44795308      -0.89689352
H        0.52099860      -0.12538902      -1.61109025
H        0.01917080      -1.07294877       0.65243243
H        0.30704630       0.44799135       1.38137651
H       -3.60055609       0.12942911       0.87986007
H       -3.08529906      -1.51967378       0.64267656
15
Frame=15 idx=006066 GeodesicLength=0.30231980496431493 rxn_smarts="[C:1]([C:2]([C:3]([C:4](=[O:5])[N:6]([H:14])[H:15])([H:12])[H:13])([H:10])[H:11])([H:7])([H:8])[H:9]>>[C:1]([C:2]([C:3]([O+:5]=[C-:4][N:6]([H:14])[H:15])([H:12])[H:13])([H:10])[H:11])([H:7])([H:8])[H:9]"
C        2.32561029       0.02970813      -0.43598290
C        0.86875901       0.38621717      -0.70033935
C       -0.04957091       0.00221699       0.44637334
C       -1.80834492      -0.11527381      -0.06009266
O       -1.48151474       1.08039749       0.19622505
N       -2.90601115      -0.53714825       0.58245721
H        2.95826258       0.31699946      -1.27694229
H        2.44823078      -1.04500674      -0.28030257
H        2.70261267       0.53942409       0.45414216
H        0.77558619       1.45938415      -0.88195050
H        0.51902593      -0.10406375      -1.61276682
H        0.02904643      -1.07044980       0.65070353
H        0.30360623       0.44656697       1.38308128
H       -3.61607118       0.13046684       0.84402577
H       -3.06922722      -1.51943893       0.69136878
15
Frame=16 idx=006066 GeodesicLength=0.32235162068787804 rxn_smarts="[C:1]([C:2]([C:3]([C:4](=[O:5])[N:6]([H:14])[H:15])([H:12])[H:13])([H:10])[H:11])([H:7])([H:8])[H:9]>>[C:1]([C:2]([C:3]([O+:5]=[C-:4][N:6]([H:14])[H:15])([H:12])[H:13])([H:10])[H:11])([H:7])([H:8])[H:9]"
C        2.32483538       0.02558636      -0.43789740
C        0.87034239       0.39461300      -0.69617897
C       -0.05292239       0.00431754       0.44622009
C       -1.80823788      -0.12642049      -0.05953060
O       -1.48681853       1.07375899       0.17309536
N       -2.90764592      -0.53778911       0.58620786
H        2.95925682       0.32010146      -1.27501735
H        2.44023367      -1.05192161      -0.29659454
H        2.70533480       0.52053254       0.45910573
H        0.78431898       1.47024027      -0.86722937
H        0.51720365      -0.08341832      -1.61404660
H        0.03901659      -1.06788498       0.64936570
H        0.30031258       0.44519859       1.38482683
H       -3.63008136       0.12991647       0.80979657
H       -3.05514878      -1.51683071       0.73787670
