15
Frame=0 idx=003101 GeodesicLength=0.0 rxn_smarts="[C:1]([C@@:2]1([H:10])[N:3]([H:11])[C@:4]1([C:5]([O:6][H:15])([H:13])[H:14])[H:12])([H:7])([H:8])[H:9]>>[C:1]([C@@:2]1([H:10])[N+:3]([C:5]([O:6][H:15])([H:13])[H:14])([H:11])[C-:4]1[H:12])([H:7])([H:8])[H:9]"
C       -1.74942794       0.69885439       0.24635417
C       -0.91661377      -0.22820730      -0.60057130
N        0.47457555       0.14223095      -0.79242958
C       -0.12695578      -1.29820433       0.02201791
C        1.61925609      -0.29563908       0.54516155
O        1.48820411       0.78670732       1.35572998
H       -2.72432856       0.24561022       0.43651832
H       -1.26357836       0.86643573       1.20689704
H       -1.90629121       1.65814840      -0.25324334
H       -1.36564004      -0.46460937      -1.56526675
H        0.81784875      -0.18862990      -1.68760890
H        0.10929756      -2.07361340      -0.71907433
H        2.44830677      -0.24356983      -0.16879486
H        1.74511628      -1.15972392       1.18311393
H        1.35023061       1.55421006       0.79119615
15
Frame=1 idx=003101 GeodesicLength=0.057697055886440314 rxn_smarts="[C:1]([C@@:2]1([H:10])[N:3]([H:11])[C@:4]1([C:5]([O:6][H:15])([H:13])[H:14])[H:12])([H:7])([H:8])[H:9]>>[C:1]([C@@:2]1([H:10])[N+:3]([C:5]([O:6][H:15])([H:13])[H:14])([H:11])[C-:4]1[H:12])([H:7])([H:8])[H:9]"
C       -1.74459219       0.68962081       0.25764340
C       -0.91806419      -0.22772656      -0.60511302
N        0.47552650       0.13403288      -0.79869578
C       -0.11376222      -1.29924685      -0.00425682
C        1.60457144      -0.29483059       0.55666001
O        1.48757653       0.81519677       1.33595385
H       -2.72035082       0.23626097       0.44343693
H       -1.25862506       0.84229122       1.22044916
H       -1.90089257       1.65619874      -0.22781535
H       -1.37391081      -0.45317938      -1.56926968
H        0.81802415      -0.17537574      -1.70112778
H        0.11495562      -2.07473703      -0.74638758
H        2.45170274      -0.27978014      -0.13774007
H        1.70413363      -1.13802832       1.22762167
H        1.37370724       1.56930323       0.74864106
15
Frame=2 idx=003101 GeodesicLength=0.11555081207941609 rxn_smarts="[C:1]([C@@:2]1([H:10])[N:3]([H:11])[C@:4]1([C:5]([O:6][H:15])([H:13])[H:14])[H:12])([H:7])([H:8])[H:9]>>[C:1]([C@@:2]1([H:10])[N+:3]([C:5]([O:6][H:15])([H:13])[H:14])([H:11])[C-:4]1[H:12])([H:7])([H:8])[H:9]"
C       -1.73946824       0.68011073       0.26896409
C       -0.91923915      -0.22732575      -0.60943771
N        0.47658081       0.12626141      -0.80535077
C       -0.10030916      -1.29991058      -0.03038960
C        1.58948705      -0.29361391       0.56793945
O        1.48750050       0.84289994       1.31539551
H       -2.71592893       0.22648618       0.45086715
H       -1.25312301       0.81844376       1.23359834
H       -1.89564225       1.65358102      -0.20254359
H       -1.38205342      -0.44207329      -1.57277059
H        0.81813127      -0.16156038      -1.71459372
H        0.12113948      -2.07548689      -0.77342317
H        2.45399681      -0.31568550      -0.10472069
H        1.66072129      -1.11465039       1.27048314
H        1.39820694       1.58252364       0.70598218
15
Frame=3 idx=003101 GeodesicLength=0.17375696946739372 rxn_smarts="[C:1]([C@@:2]1([H:10])[N:3]([H:11])[C@:4]1([C:5]([O:6][H:15])([H:13])[H:14])[H:12])([H:7])([H:8])[H:9]>>[C:1]([C@@:2]1([H:10])[N+:3]([C:5]([O:6][H:15])([H:13])[H:14])([H:11])[C-:4]1[H:12])([H:7])([H:8])[H:9]"
C       -1.73403364       0.67028884       0.28031248
C       -0.92009677      -0.22699813      -0.61353290
N        0.47771270       0.11894868      -0.81234381
C       -0.08658463      -1.30008606      -0.05635804
C        1.57392434      -0.29199581       0.57896060
O        1.48793959       0.86971936       1.29408991
H       -2.71092138       0.21615772       0.45892580
H       -1.24702489       0.79505866       1.24630032
H       -1.89064296       1.65014628      -0.17752729
H       -1.38995894      -0.43133913      -1.57575246
H        0.81811290      -0.14714310      -1.72797288
H        0.12788991      -2.07572395      -0.80016432
H        2.45496420      -0.35126487      -0.06976928
H        1.61475510      -1.08950906       1.31151452
H        1.42396446       1.59374055       0.66331734
15
Frame=4 idx=003101 GeodesicLength=0.2321647710902022 rxn_smarts="[C:1]([C@@:2]1([H:10])[N:3]([H:11])[C@:4]1([C:5]([O:6][H:15])([H:13])[H:14])[H:12])([H:7])([H:8])[H:9]>>[C:1]([C@@:2]1([H:10])[N+:3]([C:5]([O:6][H:15])([H:13])[H:14])([H:11])[C-:4]1[H:12])([H:7])([H:8])[H:9]"
C       -1.72833788       0.66028215       0.29159117
C       -0.92068897      -0.22677791      -0.61735867
N        0.47891415       0.11207535      -0.81967802
C       -0.07259778      -1.29976801      -0.08198323
C        1.55807577      -0.29000576       0.58959130
O        1.48893438       0.89542264       1.27227279
H       -2.70547177       0.20547521       0.46742860
H       -1.24044437       0.77223772       1.25853862
H       -1.88581346       1.64606877      -0.15293533
H       -1.39771811      -0.42112054      -1.57815432
H        0.81787905      -0.13221589      -1.74127794
H        0.13512686      -2.07555751      -0.82635089
H        2.45469837      -0.38615343      -0.03303392
H        1.56687504      -1.06281050       1.35025701
H        1.45056874       1.60284771       0.62109284
15
Frame=5 idx=003101 GeodesicLength=0.29085020307518156 rxn_smarts="[C:1]([C@@:2]1([H:10])[N:3]([H:11])[C@:4]1([C:5]([O:6][H:15])([H:13])[H:14])[H:12])([H:7])([H:8])[H:9]>>[C:1]([C@@:2]1([H:10])[N+:3]([C:5]([O:6][H:15])([H:13])[H:14])([H:11])[C-:4]1[H:12])([H:7])([H:8])[H:9]"
C       -1.72249799       0.65009697       0.30278702
C       -0.92106022      -0.22666257      -0.62092730
N        0.48017468       0.10570018      -0.82730562
C       -0.05833215      -1.29896898      -0.10726640
C        1.54200195      -0.28769511       0.59983689
O        1.49058062       0.92001604       1.24999591
H       -2.69966012       0.19432846       0.47642472
H       -1.23344359       0.75011195       1.27030105
H       -1.88139605       1.64136696      -0.12883298
H       -1.40536415      -0.41143663      -1.58000873
H        0.81740218      -0.11669479      -1.75448375
H        0.14291633      -2.07500198      -0.85200103
H        2.45317213      -0.42043438       0.00546192
H        1.51718272      -1.03460724       1.38664701
H        1.47832367       1.60988111       0.57937130
15
Frame=6 idx=003101 GeodesicLength=0.3499851068155375 rxn_smarts="[C:1]([C@@:2]1([H:10])[N:3]([H:11])[C@:4]1([C:5]([O:6][H:15])([H:13])[H:14])[H:12])([H:7])([H:8])[H:9]>>[C:1]([C@@:2]1([H:10])[N+:3]([C:5]([O:6][H:15])([H:13])[H:14])([H:11])[C-:4]1[H:12])([H:7])([H:8])[H:9]"
C       -1.71643235       0.63970926       0.31387126
C       -0.92119107      -0.22666752      -0.62424374
N        0.48144043       0.09981343      -0.83518734
C       -0.04382248      -1.29760948      -0.13219028
C        1.52565836      -0.28504021       0.60965813
O        1.49287766       0.94344652       1.22733591
H       -2.69333840       0.18267205       0.48586730
H       -1.22596289       0.72873066       1.28158400
H       -1.87730985       1.63596431      -0.10524802
H       -1.41286374      -0.40235239      -1.58131991
H        0.81655127      -0.10061345      -1.76754599
H        0.15118516      -2.07397578      -0.87708753
H        2.45016689      -0.45399036       0.04570508
H        1.46581463      -1.00481842       1.42048365
H        1.50722639       1.61473140       0.53831749
15
Frame=7 idx=003101 GeodesicLength=0.4094048800575435 rxn_smarts="[C:1]([C@@:2]1([H:10])[N:3]([H:11])[C@:4]1([C:5]([O:6][H:15])([H:13])[H:14])[H:12])([H:7])([H:8])[H:9]>>[C:1]([C@@:2]1([H:10])[N+:3]([C:5]([O:6][H:15])([H:13])[H:14])([H:11])[C-:4]1[H:12])([H:7])([H:8])[H:9]"
C       -1.71037157       0.62920980       0.32481781
C       -0.92116249      -0.22677685      -0.62729730
N        0.48275557       0.09447547      -0.84332340
C       -0.02905098      -1.29574865      -0.15665389
C        1.50924096      -0.28214753       0.61901942
O        1.49592124       0.96564292       1.20438843
H       -2.68680076       0.17053357       0.49577318
H       -1.21823655       0.70821779       1.29240625
H       -1.87382357       1.63003607      -0.08230315
H       -1.42028848      -0.39387311      -1.58209851
H        0.81540506      -0.08390212      -1.78050251
H        0.16001898      -2.07258602      -0.90148896
H        2.44586909      -0.48682310       0.08755538
H        1.41319721      -0.97371509       1.45166144
H        1.53732630       1.61745684       0.49804581
15
Frame=8 idx=003101 GeodesicLength=0.4694213923783215 rxn_smarts="[C:1]([C@@:2]1([H:10])[N:3]([H:11])[C@:4]1([C:5]([O:6][H:15])([H:13])[H:14])[H:12])([H:7])([H:8])[H:9]>>[C:1]([C@@:2]1([H:10])[N+:3]([C:5]([O:6][H:15])([H:13])[H:14])([H:11])[C-:4]1[H:12])([H:7])([H:8])[H:9]"
C       -1.70413784       0.61855863       0.33556203
C       -0.92092629      -0.22701974      -0.63009126
N        0.48398799       0.08967465      -0.85161065
C       -0.01407271      -1.29322986      -0.18066956
C        1.49265630      -0.27896678       0.62788677
O        1.49968853       0.98654762       1.18128668
H       -2.67971265       0.15783095       0.50607730
H       -1.21006227       0.68871786       1.30268440
H       -1.87081822       1.62339049      -0.06008544
H       -1.42756187      -0.38613468      -1.58233881
H        0.81371318      -0.06661732      -1.79321424
H        0.16929232      -2.07065603      -0.92520592
H        2.43988302      -0.51879841       0.13092216
H        1.35950544      -0.94119572       1.47995712
H        1.56856507       1.61789834       0.45883943
15
Frame=9 idx=003101 GeodesicLength=0.5298073344508385 rxn_smarts="[C:1]([C@@:2]1([H:10])[N:3]([H:11])[C@:4]1([C:5]([O:6][H:15])([H:13])[H:14])[H:12])([H:7])([H:8])[H:9]>>[C:1]([C@@:2]1([H:10])[N+:3]([C:5]([O:6][H:15])([H:13])[H:14])([H:11])[C-:4]1[H:12])([H:7])([H:8])[H:9]"
C       -1.69797361       0.60782331       0.34611457
C       -0.92058216      -0.22738492      -0.63266676
N        0.48517085       0.08549471      -0.86008473
C        0.00111425      -1.29019218      -0.20419874
C        1.47606886      -0.27559967       0.63631236
O        1.50435388       1.00621991       1.15810672
H       -2.67234724       0.14447545       0.51686260
H       -1.20164367       0.67036282       1.31251788
H       -1.86864926       1.61622933      -0.03868276
H       -1.43478971      -0.37910918      -1.58216817
H        0.81155519      -0.04864953      -1.80578989
H        0.17908274      -2.06837453      -0.94824701
H        2.43235645      -0.54998158       0.17574646
H        1.30508029      -0.90750397       1.50547103
H        1.60120314       1.61619003       0.42070644
15
Frame=10 idx=003101 GeodesicLength=0.5908279350583439 rxn_smarts="[C:1]([C@@:2]1([H:10])[N:3]([H:11])[C@:4]1([C:5]([O:6][H:15])([H:13])[H:14])[H:12])([H:7])([H:8])[H:9]>>[C:1]([C@@:2]1([H:10])[N+:3]([C:5]([O:6][H:15])([H:13])[H:14])([H:11])[C-:4]1[H:12])([H:7])([H:8])[H:9]"
C       -1.69185745       0.59707351       0.35640893
C       -0.92006051      -0.22784089      -0.63489069
N        0.48633882       0.08183734      -0.86861145
C        0.01652601      -1.28642085      -0.22712764
C        1.45951442      -0.27209279       0.64408631
O        1.50978237       1.02434759       1.13484222
H       -2.66470509       0.13076265       0.52796290
H       -1.19313067       0.65317133       1.32173706
H       -1.86715358       1.60846471      -0.01812088
H       -1.44180484      -0.37281222      -1.58130004
H        0.80896246      -0.03011898      -1.81797977
H        0.18944291      -2.06547104      -0.97035322
H        2.42321583      -0.58023197       0.22171542
H        1.25042225      -0.87273401       1.52779732
H        1.63450707       1.61206561       0.38383354
15
Frame=11 idx=003101 GeodesicLength=0.6521885602913488 rxn_smarts="[C:1]([C@@:2]1([H:10])[N:3]([H:11])[C@:4]1([C:5]([O:6][H:15])([H:13])[H:14])[H:12])([H:7])([H:8])[H:9]>>[C:1]([C@@:2]1([H:10])[N+:3]([C:5]([O:6][H:15])([H:13])[H:14])([H:11])[C-:4]1[H:12])([H:7])([H:8])[H:9]"
C       -1.68586876       0.58631794       0.36643128
C       -0.91948472      -0.22843404      -0.63691770
N        0.48738424       0.07883292      -0.87725572
C        0.03207061      -1.28210423      -0.24951589
C        1.44309508      -0.26847147       0.65140081
O        1.51627602       1.04117518       1.11176091
H       -2.65677390       0.11637924       0.53949032
H       -1.18440924       0.63739144       1.33048219
H       -1.86663143       1.60022844       0.00142252
H       -1.44880878      -0.36734928      -1.58009199
H        0.80576628      -0.01089657      -1.82997981
H        0.20023429      -2.06221882      -0.99172823
H        2.41238400      -0.60959609       0.26885122
H        1.19582004      -0.83709564       1.54727597
H        1.66894626       1.60584098       0.34837414
15
Frame=12 idx=003101 GeodesicLength=0.7142011818426602 rxn_smarts="[C:1]([C@@:2]1([H:10])[N:3]([H:11])[C@:4]1([C:5]([O:6][H:15])([H:13])[H:14])[H:12])([H:7])([H:8])[H:9]>>[C:1]([C@@:2]1([H:10])[N+:3]([C:5]([O:6][H:15])([H:13])[H:14])([H:11])[C-:4]1[H:12])([H:7])([H:8])[H:9]"
C       -1.68007757       0.57554647       0.37615917
C       -0.91883330      -0.22910611      -0.63867752
N        0.48830561       0.07648456      -0.88589313
C        0.04779044      -1.27709352      -0.27135619
C        1.42679238      -0.26477140       0.65818196
O        1.52379511       1.05656314       1.08870527
H       -2.64854027       0.10131950       0.55144367
H       -1.17559488       0.62307301       1.33862574
H       -1.86725351       1.59139772       0.01996182
H       -1.45571291      -0.36262796      -1.57837637
H        0.80201806       0.00901830      -1.84154770
H        0.21159489      -2.05837557      -1.01229941
H        2.39974545      -0.63810284       0.31705259
H        1.14144657      -0.80056211       1.56377314
H        1.70452394       1.59723681       0.31424696
15
Frame=13 idx=003101 GeodesicLength=0.776683452733948 rxn_smarts="[C:1]([C@@:2]1([H:10])[N:3]([H:11])[C@:4]1([C:5]([O:6][H:15])([H:13])[H:14])[H:12])([H:7])([H:8])[H:9]>>[C:1]([C@@:2]1([H:10])[N+:3]([C:5]([O:6][H:15])([H:13])[H:14])([H:11])[C-:4]1[H:12])([H:7])([H:8])[H:9]"
C       -1.67450005       0.56482444       0.38557150
C       -0.91814166      -0.22989531      -0.64021158
N        0.48908139       0.07479615      -0.89454819
C        0.06362183      -1.27145388      -0.29263039
C        1.41070097      -0.26103215       0.66446393
O        1.53246394       1.07053062       1.06589425
H       -2.64002350       0.08561553       0.56379924
H       -1.16670850       0.61034142       1.34622777
H       -1.86901701       1.58206904       0.03739824
H       -1.46255286      -0.35874046      -1.57627631
H        0.79766387       0.02962980      -1.85277411
H        0.22343328      -2.05405619      -1.03208896
H        2.38526107      -0.66568993       0.36610907
H        1.08775805      -0.76336854       1.57744091
H        1.74095917       1.58642946       0.28162462
15
Frame=14 idx=003101 GeodesicLength=0.8396084822991562 rxn_smarts="[C:1]([C@@:2]1([H:10])[N:3]([H:11])[C@:4]1([C:5]([O:6][H:15])([H:13])[H:14])[H:12])([H:7])([H:8])[H:9]>>[C:1]([C@@:2]1([H:10])[N+:3]([C:5]([O:6][H:15])([H:13])[H:14])([H:11])[C-:4]1[H:12])([H:7])([H:8])[H:9]"
C       -1.66918769       0.55420804       0.39462959
C       -0.91742190      -0.23079102      -0.64149814
N        0.48969531       0.07377376      -0.90315771
C        0.07955013      -1.26515874      -0.31331358
C        1.39488480      -0.25730845       0.67023531
O        1.54230052       1.08299878       1.04340788
H       -2.63123043       0.06930339       0.57653814
H       -1.15780976       0.59932925       1.35322845
H       -1.87203149       1.57225171       0.05363532
H       -1.46930980      -0.35569896      -1.57376561
H        0.79270949       0.05091162      -1.86355974
H        0.23575651      -2.04922455      -1.05105124
H        2.36890328      -0.69228554       0.41574783
H        1.03513338      -0.72572703       1.58832597
H        1.77805762       1.57341773       0.25059754
15
Frame=15 idx=003101 GeodesicLength=0.9029172813001111 rxn_smarts="[C:1]([C@@:2]1([H:10])[N:3]([H:11])[C@:4]1([C:5]([O:6][H:15])([H:13])[H:14])[H:12])([H:7])([H:8])[H:9]>>[C:1]([C@@:2]1([H:10])[N+:3]([C:5]([O:6][H:15])([H:13])[H:14])([H:11])[C-:4]1[H:12])([H:7])([H:8])[H:9]"
C       -1.66415765       0.54375179       0.40331471
C       -0.91668321      -0.23179792      -0.64254181
N        0.49013344       0.07340289      -0.91169789
C        0.09555651      -1.25822343      -0.33340633
C        1.37939976      -0.25364882       0.67551181
O        1.55332368       1.09393450       1.02135142
H       -2.62215005       0.05244359       0.58963821
H       -1.14893435       0.59012449       1.35961983
H       -1.87633302       1.56198352       0.06861960
H       -1.47597798      -0.35351870      -1.57087163
H        0.78714547       0.07283708      -1.87387639
H        0.24854959      -2.04389884      -1.06919413
H        2.35066432      -0.71784369       0.46573482
H        0.98391366      -0.68783242       1.59657951
H        1.81554985       1.55828598       0.22121829
15
Frame=16 idx=003101 GeodesicLength=0.9665567456969845 rxn_smarts="[C:1]([C@@:2]1([H:10])[N:3]([H:11])[C@:4]1([C:5]([O:6][H:15])([H:13])[H:14])[H:12])([H:7])([H:8])[H:9]>>[C:1]([C@@:2]1([H:10])[N+:3]([C:5]([O:6][H:15])([H:13])[H:14])([H:11])[C-:4]1[H:12])([H:7])([H:8])[H:9]"
C       -1.65943852       0.53349222       0.41161036
C       -0.91593260      -0.23290936      -0.64334091
N        0.49038936       0.07368756      -0.92013180
C        0.11161605      -1.25064325      -0.35291291
C        1.36428037      -0.25009106       0.68031841
O        1.56555105       1.10330514       0.99980167
H       -2.61275935       0.03504499       0.60311575
H       -1.14011694       0.58282951       1.36536687
H       -1.88200831       1.55125657       0.08229149
H       -1.48254077      -0.35219876      -1.56760721
H        0.78100049       0.09537730      -1.88366795
H        0.26179590      -2.03806213      -1.08652346
H        2.33053259      -0.74232533       0.51580302
H        0.93434310      -0.64985820       1.60237178
H        1.85328759       1.54109479       0.19350490
