14
Frame=0 idx=002716 GeodesicLength=0.0 rxn_smarts="[C:1]([C@@:2]([O:3][H:11])([C:4]([C:5](=[O:6])[H:14])([H:12])[H:13])[H:10])([H:7])([H:8])[H:9]>>[C:1]([C:4]([C:2](=[O:3])[H:10])([H:12])[H:13])([H:7])([H:8])[H:9].[C:5](=[O:6])([H:11])[H:14]"
C       -1.83688271      -0.39979919      -0.50513315
C       -0.38797085       0.34387658      -0.51393080
O       -0.42002862       1.48187863       0.13463836
C        0.25576228      -0.72982938       0.20619782
C        2.07244372       0.65283244       0.70993197
O        2.84899402       0.56541468      -0.20321556
H       -2.43898176       0.29188653      -1.08988697
H       -1.84625356      -1.37606276      -0.98537468
H       -2.23349818      -0.44936224       0.50624454
H       -0.09124817       0.37162364      -1.57696581
H        0.97392119       1.14707575       0.57654589
H        0.61025441      -1.62777790      -0.29342795
H        0.07160026      -0.79922138       1.27456273
H        2.42188794       0.52746462       1.75981363
14
Frame=1 idx=002716 GeodesicLength=0.11623188416010596 rxn_smarts="[C:1]([C@@:2]([O:3][H:11])([C:4]([C:5](=[O:6])[H:14])([H:12])[H:13])[H:10])([H:7])([H:8])[H:9]>>[C:1]([C:4]([C:2](=[O:3])[H:10])([H:12])[H:13])([H:7])([H:8])[H:9].[C:5](=[O:6])([H:11])[H:14]"
C       -1.83404695      -0.41420193      -0.48768430
C       -0.38900738       0.36417087      -0.52968246
O       -0.41116006       1.49816788       0.12477415
C        0.25682255      -0.71879724       0.17828665
C        2.07376686       0.63768656       0.72120507
O        2.88868130       0.48942370      -0.14940122
H       -2.45553668       0.26345146      -1.06948032
H       -1.85489392      -1.39408191      -0.96048824
H       -2.21682320      -0.45431634       0.52967295
H       -0.11417912       0.39583846      -1.59833337
H        0.98945019       1.20474099       0.54631613
H        0.60344349      -1.60877045      -0.34153732
H        0.08935989      -0.81980255       1.24629218
H        2.37412304       0.55649048       1.79006011
14
Frame=2 idx=002716 GeodesicLength=0.23246716547057916 rxn_smarts="[C:1]([C@@:2]([O:3][H:11])([C:4]([C:5](=[O:6])[H:14])([H:12])[H:13])[H:10])([H:7])([H:8])[H:9]>>[C:1]([C:4]([C:2](=[O:3])[H:10])([H:12])[H:13])([H:7])([H:8])[H:9].[C:5](=[O:6])([H:11])[H:14]"
C       -1.83049719      -0.42832100      -0.46936793
C       -0.39025108       0.38418709      -0.54504877
O       -0.40019984       1.51381501       0.11585226
C        0.25817112      -0.70858283       0.14934349
C        2.07318657       0.62333972       0.73306096
O        2.92509649       0.41149637      -0.08734725
H       -2.47111270       0.23583364      -1.04688171
H       -1.86344421      -1.41179299      -0.93437018
H       -2.19871907      -0.45923484       0.55393110
H       -0.13873658       0.42043129      -1.61917255
H        1.00924669       1.26307441       0.50897622
H        0.59713341      -1.58918463      -0.39185551
H        0.10800004      -0.84313363       1.21568056
H        2.32212635       0.58807240       1.81719932
14
Frame=3 idx=002716 GeodesicLength=0.348487277493106 rxn_smarts="[C:1]([C@@:2]([O:3][H:11])([C:4]([C:5](=[O:6])[H:14])([H:12])[H:13])[H:10])([H:7])([H:8])[H:9]>>[C:1]([C:4]([C:2](=[O:3])[H:10])([H:12])[H:13])([H:7])([H:8])[H:9].[C:5](=[O:6])([H:11])[H:14]"
C       -1.82609744      -0.44205140      -0.45016121
C       -0.39145769       0.40381109      -0.55998957
O       -0.38647559       1.52880478       0.10758268
C        0.25980060      -0.69941138       0.11941195
C        2.07047339       0.61005683       0.74536357
O        2.95677546       0.33302763      -0.01700482
H       -2.48548122       0.20926422      -1.02207881
H       -1.87186144      -1.42907010      -0.90694396
H       -2.17896310      -0.46389744       0.57904851
H       -0.16466646       0.44517061      -1.63934918
H        1.03312421       1.32111903       0.46527290
H        0.59113759      -1.56919207      -0.44431572
H        0.12756422      -0.86941013       1.18256051
H        2.26612747       0.62177834       1.84060316
14
Frame=4 idx=002716 GeodesicLength=0.4641205939725481 rxn_smarts="[C:1]([C@@:2]([O:3][H:11])([C:4]([C:5](=[O:6])[H:14])([H:12])[H:13])[H:10])([H:7])([H:8])[H:9]>>[C:1]([C:4]([C:2](=[O:3])[H:10])([H:12])[H:13])([H:7])([H:8])[H:9].[C:5](=[O:6])([H:11])[H:14]"
C       -1.82073047      -0.45530338      -0.43023792
C       -0.39232250       0.42290675      -0.57449804
O       -0.36954752       1.54325157       0.09935867
C        0.26162117      -0.69139273       0.08881014
C        2.06561836       0.59797638       0.75784479
O        2.98213146       0.25604714       0.06040482
H       -2.49836389       0.18383074      -0.99549654
H       -1.88004475      -1.44585584      -0.87820202
H       -2.15753311      -0.46794108       0.60479851
H       -0.19140298       0.46961682      -1.65873056
H        1.06023834       1.37778962       0.41755775
H        0.58515503      -1.54901529      -0.49832343
H        0.14798581      -0.89834319       1.14708176
H        2.20719504       0.65643248       1.85963205
14
Frame=5 idx=002716 GeodesicLength=0.5794883642003789 rxn_smarts="[C:1]([C@@:2]([O:3][H:11])([C:4]([C:5](=[O:6])[H:14])([H:12])[H:13])[H:10])([H:7])([H:8])[H:9]>>[C:1]([C:4]([C:2](=[O:3])[H:10])([H:12])[H:13])([H:7])([H:8])[H:9].[C:5](=[O:6])([H:11])[H:14]"
C       -1.81419825      -0.46804777      -0.40982363
C       -0.39252007       0.44143894      -0.58862274
O       -0.34933971       1.55746301       0.09029796
C        0.26337496      -0.68453845       0.05795804
C        2.05882052       0.58705625       0.77013817
O        3.00018463       0.18268748       0.14265231
H       -2.50925569       0.15949842      -0.96774186
H       -1.88773330      -1.46226517      -0.84799131
H       -2.13447896      -0.47102845       0.63079430
H       -0.21818739       0.49343493      -1.67716582
H        1.08902299       1.43227830       0.36881578
H        0.57867249      -1.52899413      -0.55294037
H        0.16878727      -0.92931699       1.10957474
H        2.14685052       0.69033362       1.87405442
14
Frame=6 idx=002716 GeodesicLength=0.6943428832905476 rxn_smarts="[C:1]([C@@:2]([O:3][H:11])([C:4]([C:5](=[O:6])[H:14])([H:12])[H:13])[H:10])([H:7])([H:8])[H:9]>>[C:1]([C:4]([C:2](=[O:3])[H:10])([H:12])[H:13])([H:7])([H:8])[H:9].[C:5](=[O:6])([H:11])[H:14]"
C       -1.80657328      -0.48036328      -0.38942819
C       -0.39197815       0.45939851      -0.60229695
O       -0.32653148       1.57163007       0.08006168
C        0.26489610      -0.67858566       0.02764131
C        2.05060231       0.57690148       0.78181100
O        3.01032677       0.11381381       0.22687573
H       -2.51814849       0.13600648      -0.93984467
H       -1.89458811      -1.47836750      -0.81676608
H       -2.11032429      -0.47313219       0.65641681
H       -0.24428999       0.51631968      -1.69453154
H        1.11838179       1.48459847       0.32225599
H        0.57145109      -1.50925131      -0.60681770
H        0.18980785      -0.96121614       1.07089853
H        2.08696787       0.72224760       1.88372408
14
Frame=7 idx=002716 GeodesicLength=0.8088449394903496 rxn_smarts="[C:1]([C@@:2]([O:3][H:11])([C:4]([C:5](=[O:6])[H:14])([H:12])[H:13])[H:10])([H:7])([H:8])[H:9]>>[C:1]([C:4]([C:2](=[O:3])[H:10])([H:12])[H:13])([H:7])([H:8])[H:9].[C:5](=[O:6])([H:11])[H:14]"
C       -1.79790604      -0.49236009      -0.36927016
C       -0.39072316       0.47686729      -0.61554378
O       -0.30174728       1.58589246       0.06844738
C        0.26608302      -0.67331907      -0.00180126
C        2.04139810       0.56709693       0.79268070
O        3.01293330       0.04942842       0.31139797
H       -2.52507694       0.11314233      -0.91227653
H       -1.90036703      -1.49428247      -0.78469198
H       -2.08533560      -0.47438657       0.68138528
H       -0.26944005       0.53829314      -1.71083268
H        1.14758338       1.53523169       0.27925167
H        0.56332292      -1.48985476      -0.65928084
H        0.21080668      -0.99335416       1.03147966
H        2.02846869       0.75160488       1.88905456
14
Frame=8 idx=002716 GeodesicLength=0.9232158781883715 rxn_smarts="[C:1]([C@@:2]([O:3][H:11])([C:4]([C:5](=[O:6])[H:14])([H:12])[H:13])[H:10])([H:7])([H:8])[H:9]>>[C:1]([C:4]([C:2](=[O:3])[H:10])([H:12])[H:13])([H:7])([H:8])[H:9].[C:5](=[O:6])([H:11])[H:14]"
C       -1.78832727      -0.50418332      -0.34950167
C       -0.38886898       0.49387839      -0.62832821
O       -0.27547973       1.60020816       0.05553307
C        0.26687416      -0.66849038      -0.03021623
C        2.03162050       0.55726000       0.80272835
O        3.00869201      -0.01100989       0.39531157
H       -2.53022538       0.09061947      -0.88528874
H       -1.90499752      -1.51008058      -0.75199459
H       -2.05972914      -0.47501103       0.70547613
H       -0.29364176       0.55937870      -1.72599837
H        1.17637944       1.58488084       0.24020829
H        0.55414811      -1.47069186      -0.70999398
H        0.23165302      -1.02517054       0.99149300
H        1.97190253       0.77841202       1.89057138
14
Frame=9 idx=002716 GeodesicLength=1.0377605693723906 rxn_smarts="[C:1]([C@@:2]([O:3][H:11])([C:4]([C:5](=[O:6])[H:14])([H:12])[H:13])[H:10])([H:7])([H:8])[H:9]>>[C:1]([C:4]([C:2](=[O:3])[H:10])([H:12])[H:13])([H:7])([H:8])[H:9].[C:5](=[O:6])([H:11])[H:14]"
C       -1.77785000      -0.51591594      -0.33002300
C       -0.38640799       0.51054664      -0.64070636
O       -0.24790224       1.61457895       0.04125587
C        0.26723133      -0.66412429      -0.05773376
C        2.02139798       0.54711084       0.81199755
O        2.99834720      -0.06785792       0.47846657
H       -2.53358999       0.06843526      -0.85871838
H       -1.90842274      -1.52585807      -0.71855489
H       -2.03351649      -0.47523190       0.72877453
H       -0.31689917       0.57988344      -1.74007476
H        1.20463253       1.63411082       0.20480784
H        0.54384508      -1.45186304      -0.75905881
H        0.25204015      -1.05672445       0.95084681
H        1.91709434       0.80290964       1.88872081
14
Frame=10 idx=002716 GeodesicLength=1.1522308896300173 rxn_smarts="[C:1]([C@@:2]([O:3][H:11])([C:4]([C:5](=[O:6])[H:14])([H:12])[H:13])[H:10])([H:7])([H:8])[H:9]>>[C:1]([C:4]([C:2](=[O:3])[H:10])([H:12])[H:13])([H:7])([H:8])[H:9].[C:5](=[O:6])([H:11])[H:14]"
C       -1.76666690      -0.52763663      -0.31098896
C       -0.38350186       0.52683393      -0.65262764
O       -0.21936522       1.62888740       0.02595099
C        0.26722059      -0.66007997      -0.08417704
C        2.01098104       0.53643204       0.82054106
O        2.98219393      -0.12173624       0.56036163
H       -2.53552451       0.04644247      -0.83281470
H       -1.91063473      -1.54158527      -0.68479585
H       -2.00693299      -0.47520598       0.75119210
H       -0.33933650       0.59972138      -1.75311618
H        1.23243567       1.68346826       0.17310773
H        0.53252473      -1.43332832      -0.80625447
H        0.27212915      -1.08759873       0.90985844
H        1.86447762       0.82538567       1.88376288
14
Frame=11 idx=002716 GeodesicLength=1.266796548422413 rxn_smarts="[C:1]([C@@:2]([O:3][H:11])([C:4]([C:5](=[O:6])[H:14])([H:12])[H:13])[H:10])([H:7])([H:8])[H:9]>>[C:1]([C:4]([C:2](=[O:3])[H:10])([H:12])[H:13])([H:7])([H:8])[H:9].[C:5](=[O:6])([H:11])[H:14]"
C       -1.75483003      -0.53939952      -0.29232398
C       -0.38014963       0.54277628      -0.66412408
O       -0.18987249       1.64305408       0.00963236
C        0.26684799      -0.65640040      -0.10967385
C        2.00041932       0.52505389       0.82847208
O        2.96071206      -0.17293730       0.64103139
H       -2.53609794       0.02463348      -0.80745588
H       -1.91167303      -1.55730174      -0.65067880
H       -1.97999591      -0.47505926       0.77281172
H       -0.36101873       0.61904584      -1.76515852
H        1.25974915       1.73341150       0.14475732
H        0.52017759      -1.41514357      -0.85173674
H        0.29177658      -1.11787282       0.86843905
H        1.81395508       0.84613954       1.87600795
14
Frame=12 idx=002716 GeodesicLength=1.3814620951880778 rxn_smarts="[C:1]([C@@:2]([O:3][H:11])([C:4]([C:5](=[O:6])[H:14])([H:12])[H:13])[H:10])([H:7])([H:8])[H:9]>>[C:1]([C:4]([C:2](=[O:3])[H:10])([H:12])[H:13])([H:7])([H:8])[H:9].[C:5](=[O:6])([H:11])[H:14]"
C       -1.74242922      -0.55125784      -0.27402853
C       -0.37638857       0.55835756      -0.67518769
O       -0.15945783       1.65696320      -0.00758337
C        0.26613129      -0.65308576      -0.13425074
C        1.98976831       0.51282558       0.83590208
O        2.93417859      -0.22178516       0.72037903
H       -2.53545266       0.00296117      -0.78264163
H       -1.91158562      -1.57300919      -0.61633216
H       -1.95278209      -0.47490087       0.79365655
H       -0.38201599       0.63788210      -1.77622112
H        1.28659050       1.78438054       0.11955706
H        0.50682640      -1.39733176      -0.89554254
H        0.31096263      -1.14748723       0.82662596
H        1.76565427       0.86548766       1.86566708
14
Frame=13 idx=002716 GeodesicLength=1.496289603430626 rxn_smarts="[C:1]([C@@:2]([O:3][H:11])([C:4]([C:5](=[O:6])[H:14])([H:12])[H:13])[H:10])([H:7])([H:8])[H:9]>>[C:1]([C:4]([C:2](=[O:3])[H:10])([H:12])[H:13])([H:7])([H:8])[H:9].[C:5](=[O:6])([H:11])[H:14]"
C       -1.72946614      -0.56322043      -0.25599058
C       -0.37217791       0.57358684      -0.68589546
O       -0.12799276       1.67050592      -0.02582287
C        0.26510591      -0.65020768      -0.15808471
C        1.97894798       0.49960510       0.84298661
O        2.90286646      -0.26837548       0.79856124
H       -2.53361654      -0.01853789      -0.75820664
H       -1.91041709      -1.58870248      -0.58161944
H       -1.92519102      -0.47475249       0.81385028
H       -0.40241980       0.65633033      -1.78637196
H        1.31284748       1.83671145       0.09724379
H        0.49246391      -1.37993009      -0.93789027
H        0.32964062      -1.17659171       0.78426219
H        1.71940891       0.88357862       1.85297783
14
Frame=14 idx=002716 GeodesicLength=1.6112361441117886 rxn_smarts="[C:1]([C@@:2]([O:3][H:11])([C:4]([C:5](=[O:6])[H:14])([H:12])[H:13])[H:10])([H:7])([H:8])[H:9]>>[C:1]([C:4]([C:2](=[O:3])[H:10])([H:12])[H:13])([H:7])([H:8])[H:9].[C:5](=[O:6])([H:11])[H:14]"
C       -1.71603665      -0.57534465      -0.23824978
C       -0.36754872       0.58841737      -0.69621657
O       -0.09546590       1.68355983      -0.04494649
C        0.26377071      -0.64776574      -0.18114519
C        1.96801845       0.48530293       0.84978760
O        2.86683606      -0.31307029       0.87540339
H       -2.53072841      -0.03993110      -0.73422060
H       -1.90821986      -1.60439069      -0.54674826
H       -1.89733779      -0.47470254       0.83337734
H       -0.42225107       0.67433512      -1.79560828
H        1.33846025       1.89089700       0.07780262
H        0.47711410      -1.36298858      -0.97873757
H        0.34782276      -1.20505891       0.74146928
H        1.67556607       0.90074024       1.83803251
14
Frame=15 idx=002716 GeodesicLength=1.7263448516394233 rxn_smarts="[C:1]([C@@:2]([O:3][H:11])([C:4]([C:5](=[O:6])[H:14])([H:12])[H:13])[H:10])([H:7])([H:8])[H:9]>>[C:1]([C:4]([C:2](=[O:3])[H:10])([H:12])[H:13])([H:7])([H:8])[H:9].[C:5](=[O:6])([H:11])[H:14]"
C       -1.70213221      -0.58763908      -0.22071573
C       -0.36245585       0.60282907      -0.70622067
O       -0.06169534       1.69599721      -0.06509201
C        0.26216263      -0.64581664      -0.20358456
C        1.95690310       0.46979507       0.85643013
O        2.82611827      -0.35604731       0.95107125
H       -2.52681773      -0.06120251      -0.71054350
H       -1.90503267      -1.62005911      -0.51163601
H       -1.86910678      -0.47475703       0.85234118
H       -0.44159130       0.69192344      -1.80398632
H        1.36322979       1.94735713       0.06113553
H        0.46075977      -1.34653842      -1.01826793
H        0.36552958      -1.23298704       0.69811250
H        1.63412874       0.91714522       1.82095612
14
Frame=16 idx=002716 GeodesicLength=1.8416411538410817 rxn_smarts="[C:1]([C@@:2]([O:3][H:11])([C:4]([C:5](=[O:6])[H:14])([H:12])[H:13])[H:10])([H:7])([H:8])[H:9]>>[C:1]([C:4]([C:2](=[O:3])[H:10])([H:12])[H:13])([H:7])([H:8])[H:9].[C:5](=[O:6])([H:11])[H:14]"
C       -1.68774514      -0.60010918      -0.20331428
C       -0.35684072       0.61678540      -0.71597855
O       -0.02647522       1.70767637      -0.08640250
C        0.26031766      -0.64442477      -0.22553031
C        1.94554322       0.45295655       0.86301447
O        2.78063789      -0.39750658       1.02566675
H       -2.52191562      -0.08233133      -0.68705918
H       -1.90089596      -1.63569093      -0.47623001
H       -1.84039432      -0.47490774       0.87082932
H       -0.46048336       0.70908348      -1.81156369
H        1.38686356       2.00659266       0.04727440
H        0.44337775      -1.33064721      -1.05662078
H        0.38279876      -1.26043954       0.65409813
H        1.59521151       0.93296282       1.80181624
