13
Frame=0 idx=001058 GeodesicLength=0.0 rxn_smarts="[C:1]([C@@:2]([O:3][H:11])([C:4](=[O:5])[N:6]([H:12])[H:13])[H:10])([H:7])([H:8])[H:9]>>[C:1]([C:2]([O:3][H:11])=[C:4]([O-:5])[N+:6]([H:10])([H:12])[H:13])([H:7])([H:8])[H:9]"
C       -1.78028660       0.25361512      -0.07715008
C       -0.36448502      -0.17653782       0.13525255
O       -0.14370655      -1.57637052       0.05312175
C        0.71001749       0.64849153      -0.33095628
O        0.79637534       1.75981458      -0.77243781
N        1.91301572       0.03527144       0.43070323
H       -1.86620061       1.33764167      -0.00250976
H       -2.42623743      -0.20056655       0.67590171
H       -2.15954815      -0.04248142      -1.06421637
H        0.84010367      -0.08845379       1.10559806
H       -0.42919707      -1.87514965      -0.81583638
H        2.29626021      -0.81028339       0.03165233
H        2.61388899       0.73500876       0.63087701
13
Frame=1 idx=001058 GeodesicLength=0.05394944043850364 rxn_smarts="[C:1]([C@@:2]([O:3][H:11])([C:4](=[O:5])[N:6]([H:12])[H:13])[H:10])([H:7])([H:8])[H:9]>>[C:1]([C:2]([O:3][H:11])=[C:4]([O-:5])[N+:6]([H:10])([H:12])[H:13])([H:7])([H:8])[H:9]"
C       -1.77729110       0.25118659      -0.07973832
C       -0.36135653      -0.17678331       0.13777893
O       -0.13755227      -1.57600702       0.05080250
C        0.71165094       0.64916122      -0.33425165
O        0.79008889       1.77000061      -0.75601276
N        1.91234789       0.03970900       0.42718551
H       -1.86446513       1.33497896      -0.00416798
H       -2.42557136      -0.20523418       0.67006515
H       -2.15200808      -0.04352578      -1.06881866
H        0.83666139      -0.07937337       1.12598373
H       -0.43379772      -1.87595884      -0.81393266
H        2.27520099      -0.81977118       0.03809036
H        2.62609208       0.73161729       0.60701585
13
Frame=2 idx=001058 GeodesicLength=0.10792881817987211 rxn_smarts="[C:1]([C@@:2]([O:3][H:11])([C:4](=[O:5])[N:6]([H:12])[H:13])[H:10])([H:7])([H:8])[H:9]>>[C:1]([C:2]([O:3][H:11])=[C:4]([O-:5])[N+:6]([H:10])([H:12])[H:13])([H:7])([H:8])[H:9]"
C       -1.77424779       0.24881596      -0.08220305
C       -0.35818448      -0.17706756       0.14020689
O       -0.13145723      -1.57568069       0.04817564
C        0.71329819       0.64980025      -0.33775857
O        0.78395953       1.77965177      -0.73992275
N        1.91167406       0.04418904       0.42363392
H       -1.86259888       1.33238585      -0.00567220
H       -2.42476438      -0.20982618       0.66443275
H       -2.14459009      -0.04446034      -1.07322855
H        0.83309043      -0.07052243       1.14624045
H       -0.43842465      -1.87674232      -0.81221971
H        2.25454859      -0.82850943       0.04507104
H        2.63769672       0.72796608       0.58324414
13
Frame=3 idx=001058 GeodesicLength=0.16182278616326484 rxn_smarts="[C:1]([C@@:2]([O:3][H:11])([C:4](=[O:5])[N:6]([H:12])[H:13])[H:10])([H:7])([H:8])[H:9]>>[C:1]([C:2]([O:3][H:11])=[C:4]([O-:5])[N+:6]([H:10])([H:12])[H:13])([H:7])([H:8])[H:9]"
C       -1.77113026       0.24650189      -0.08455671
C       -0.35495424      -0.17738266       0.14253757
O       -0.12538644      -1.57533570       0.04526354
C        0.71492136       0.65038866      -0.34146413
O        0.77792356       1.78874470      -0.72415857
N        1.91097008       0.04869100       0.42003621
H       -1.86059274       1.32982701      -0.00705126
H       -2.42375176      -0.21433032       0.65897566
H       -2.13727956      -0.04527176      -1.07743721
H        0.82939877      -0.06191535       1.16637300
H       -0.44305140      -1.87742735      -0.81065365
H        2.23427407      -0.83650113       0.05255258
H        2.64865856       0.72401100       0.55958296
13
Frame=4 idx=001058 GeodesicLength=0.21581980701716635 rxn_smarts="[C:1]([C@@:2]([O:3][H:11])([C:4](=[O:5])[N:6]([H:12])[H:13])[H:10])([H:7])([H:8])[H:9]>>[C:1]([C:2]([O:3][H:11])=[C:4]([O-:5])[N+:6]([H:10])([H:12])[H:13])([H:7])([H:8])[H:9]"
C       -1.76798021       0.24424009      -0.08680136
C       -0.35168939      -0.17772916       0.14480252
O       -0.11938467      -1.57504543       0.04208913
C        0.71656346       0.65097089      -0.34535778
O        0.77206220       1.79739300      -0.70870185
N        1.91027379       0.05324042       0.41639360
H       -1.85847940       1.32735023      -0.00826925
H       -2.42266119      -0.21879607       0.65368378
H       -2.13005379      -0.04597825      -1.08150829
H        0.82554503      -0.05351900       1.18646669
H       -0.44769359      -1.87812702      -0.80924572
H        2.21439272      -0.84380934       0.06048093
H        2.65910504       0.71980964       0.53596761
13
Frame=5 idx=001058 GeodesicLength=0.26974038591126975 rxn_smarts="[C:1]([C@@:2]([O:3][H:11])([C:4](=[O:5])[N:6]([H:12])[H:13])[H:10])([H:7])([H:8])[H:9]>>[C:1]([C:2]([O:3][H:11])=[C:4]([O-:5])[N+:6]([H:10])([H:12])[H:13])([H:7])([H:8])[H:9]"
C       -1.76476526       0.24202276      -0.08895684
C       -0.34836851      -0.17808644       0.14701412
O       -0.11339159      -1.57470527       0.03867278
C        0.71817261       0.65153066      -0.34940210
O        0.76626539       1.80552990      -0.69351444
N        1.90954979       0.05781827       0.41271080
H       -1.85626302       1.32488374      -0.00932694
H       -2.42141620      -0.22324347       0.64846583
H       -2.12287450      -0.04652776      -1.08543822
H        0.82155025      -0.04534187       1.20651687
H       -0.45230936      -1.87871319      -0.80793726
H        2.19481553      -0.85045436       0.06890991
H        2.66903488       0.71528703       0.51228549
13
Frame=6 idx=001058 GeodesicLength=0.32373348103229715 rxn_smarts="[C:1]([C@@:2]([O:3][H:11])([C:4](=[O:5])[N:6]([H:12])[H:13])[H:10])([H:7])([H:8])[H:9]>>[C:1]([C:2]([O:3][H:11])=[C:4]([O-:5])[N+:6]([H:10])([H:12])[H:13])([H:7])([H:8])[H:9]"
C       -1.76151527       0.23985095      -0.09101767
C       -0.34500913      -0.17846327       0.14917914
O       -0.10744689      -1.57438876       0.03501964
C        0.71978667       0.65209156      -0.35360680
O        0.76061996       1.81325293      -0.67860950
N        1.90883102       0.06244011       0.40897732
H       -1.85395560       1.32247996      -0.01023796
H       -2.42009373      -0.22766581       0.64337418
H       -2.11575648      -0.04697375      -1.08924837
H        0.81737315      -0.03737526       1.22658284
H       -0.45691275      -1.87928494      -0.80675532
H        2.17558946      -0.85645831       0.07774120
H        2.67848959       0.71049459       0.48860129
13
Frame=7 idx=001058 GeodesicLength=0.37773368100169136 rxn_smarts="[C:1]([C@@:2]([O:3][H:11])([C:4](=[O:5])[N:6]([H:12])[H:13])[H:10])([H:7])([H:8])[H:9]>>[C:1]([C:2]([O:3][H:11])=[C:4]([O-:5])[N+:6]([H:10])([H:12])[H:13])([H:7])([H:8])[H:9]"
C       -1.75821128       0.23772314      -0.09299379
C       -0.34160150      -0.17885359       0.15129706
O       -0.10152864      -1.57405771       0.03114454
C        0.72138426       0.65264101      -0.35796515
O        0.75508275       1.82054945      -0.66396881
N        1.90810369       0.06709251       0.40518312
H       -1.85154928       1.32011495      -0.01103205
H       -2.41864760      -0.23204690       0.63839539
H       -2.10869013      -0.04731577      -1.09293038
H        0.81301230      -0.02963058       1.24667333
H       -0.46148846      -1.87979818      -0.80567050
H        2.15669584      -0.86182500       0.08693549
H        2.68743807       0.70540668       0.46493176
13
Frame=8 idx=001058 GeodesicLength=0.4317497555331258 rxn_smarts="[C:1]([C@@:2]([O:3][H:11])([C:4](=[O:5])[N:6]([H:12])[H:13])[H:10])([H:7])([H:8])[H:9]>>[C:1]([C:2]([O:3][H:11])=[C:4]([O-:5])[N+:6]([H:10])([H:12])[H:13])([H:7])([H:8])[H:9]"
C       -1.75487509       0.23563926      -0.09488113
C       -0.33815031      -0.17925713       0.15336204
O       -0.09563460      -1.57372300       0.02703700
C        0.72298120       0.65318648      -0.36247582
O        0.74968746       1.82744205      -0.64961990
N        1.90738745       0.07178073       0.40132457
H       -1.84906208       1.31780178      -0.01171221
H       -2.41711090      -0.23637845       0.63354674
H       -2.10170460      -0.04757631      -1.09647810
H        0.80844632      -0.02210829       1.26680828
H       -0.46603364      -1.88027526      -0.80469505
H        2.13816152      -0.86656672       0.09646139
H        2.69590727       0.70003486       0.44132219
13
Frame=9 idx=001058 GeodesicLength=0.48577176820445767 rxn_smarts="[C:1]([C@@:2]([O:3][H:11])([C:4](=[O:5])[N:6]([H:12])[H:13])[H:10])([H:7])([H:8])[H:9]>>[C:1]([C:2]([O:3][H:11])=[C:4]([O-:5])[N+:6]([H:10])([H:12])[H:13])([H:7])([H:8])[H:9]"
C       -1.75147480       0.23359252      -0.09669144
C       -0.33464582      -0.17966295       0.15539067
O       -0.08974792      -1.57334919       0.02272301
C        0.72455254       0.65373424      -0.36712359
O        0.74439293       1.83393361      -0.63553525
N        1.90665106       0.07650457       0.39739976
H       -1.84647815       1.31551051      -0.01227108
H       -2.41544202      -0.24069159       0.62878626
H       -2.09474467      -0.04773255      -1.09991328
H        0.80366095      -0.01482163       1.28701704
H       -0.47052814      -1.88067182      -0.80379682
H        2.11988845      -0.87070701       0.10633209
H        2.70391558       0.69436130       0.41768264
13
Frame=10 idx=001058 GeodesicLength=0.5398392061668066 rxn_smarts="[C:1]([C@@:2]([O:3][H:11])([C:4](=[O:5])[N:6]([H:12])[H:13])[H:10])([H:7])([H:8])[H:9]>>[C:1]([C:2]([O:3][H:11])=[C:4]([O-:5])[N+:6]([H:10])([H:12])[H:13])([H:7])([H:8])[H:9]"
C       -1.74804772       0.23158561      -0.09842395
C       -0.33109885      -0.18007207       0.15738516
O       -0.08387760      -1.57296815       0.01820249
C        0.72612563       0.65429581      -0.37190867
O        0.73923873       1.84007506      -0.62171249
N        1.90593712       0.08126895       0.39339857
H       -1.84383023       1.31327130      -0.01271514
H       -2.41370901      -0.24497776       0.62412516
H       -2.08784103      -0.04781009      -1.10324138
H        0.79863736      -0.00775704       1.30732902
H       -0.47497391      -1.88104472      -0.80298429
H        2.10193676      -0.87426974       0.11650076
H        2.71150275       0.68840284       0.39404476
13
Frame=11 idx=001058 GeodesicLength=0.5938909189416466 rxn_smarts="[C:1]([C@@:2]([O:3][H:11])([C:4](=[O:5])[N:6]([H:12])[H:13])[H:10])([H:7])([H:8])[H:9]>>[C:1]([C:2]([O:3][H:11])=[C:4]([O-:5])[N+:6]([H:10])([H:12])[H:13])([H:7])([H:8])[H:9]"
C       -1.74456391       0.22961449      -0.10008471
C       -0.32749810      -0.18047916       0.15934799
O       -0.07800317      -1.57253604       0.01348923
C        0.72767143       0.65485736      -0.37682295
O        0.73418538       1.84584296      -0.60815021
N        1.90521847       0.08606032       0.38931114
H       -1.84109294       1.31105510      -0.01306903
H       -2.41185142      -0.24922712       0.61955635
H       -2.08097406      -0.04780516      -1.10645691
H        0.79337033      -0.00092882       1.32775498
H       -0.47935810      -1.88133945      -0.80223196
H        2.08427828      -0.87723756       0.12692977
H        2.71861780       0.68212308       0.37042633
13
Frame=12 idx=001058 GeodesicLength=0.6479885568100454 rxn_smarts="[C:1]([C@@:2]([O:3][H:11])([C:4](=[O:5])[N:6]([H:12])[H:13])[H:10])([H:7])([H:8])[H:9]>>[C:1]([C:2]([O:3][H:11])=[C:4]([O-:5])[N+:6]([H:10])([H:12])[H:13])([H:7])([H:8])[H:9]"
C       -1.74103984       0.22767766      -0.10167973
C       -0.32384836      -0.18087970       0.16128803
O       -0.07212957      -1.57207346       0.00859424
C        0.72921012       0.65543915      -0.38186458
O        0.72925163       1.85129622      -0.59481375
N        1.90452036       0.09088973       0.38512908
H       -1.83829106       1.30887630      -0.01332059
H       -2.40991658      -0.25346330       0.61505985
H       -2.07413042      -0.04772157      -1.10958211
H        0.78783360       0.00566641       1.34832792
H       -0.48368419      -1.88159975      -0.80152819
H        2.06688748      -0.87966055       0.13762176
H        2.72533684       0.67555286       0.34676806
13
Frame=13 idx=001058 GeodesicLength=0.7021043077572927 rxn_smarts="[C:1]([C@@:2]([O:3][H:11])([C:4](=[O:5])[N:6]([H:12])[H:13])[H:10])([H:7])([H:8])[H:9]>>[C:1]([C:2]([O:3][H:11])=[C:4]([O-:5])[N+:6]([H:10])([H:12])[H:13])([H:7])([H:8])[H:9]"
C       -1.73747216       0.22577479      -0.10320644
C       -0.32014576      -0.18127102       0.16319736
O       -0.06623961      -1.57156599       0.00351063
C        0.73073588       0.65604055      -0.38703419
O        0.72444003       1.85642918      -0.58173026
N        1.90383810       0.09575312       0.38084185
H       -1.83542008       1.30673019      -0.01348075
H       -2.40788547      -0.25767389       0.61065270
H       -2.06732456      -0.04757035      -1.11260544
H        0.78200648       0.01201828       1.36905928
H       -0.48794228      -1.88181156      -0.80087251
H        2.04977010      -0.88152520       0.14855006
H        2.73163932       0.66867191       0.32311772
13
Frame=14 idx=001058 GeodesicLength=0.7562311444415607 rxn_smarts="[C:1]([C@@:2]([O:3][H:11])([C:4](=[O:5])[N:6]([H:12])[H:13])[H:10])([H:7])([H:8])[H:9]>>[C:1]([C:2]([O:3][H:11])=[C:4]([O-:5])[N+:6]([H:10])([H:12])[H:13])([H:7])([H:8])[H:9]"
C       -1.73385946       0.22390778      -0.10466171
C       -0.31638732      -0.18165353       0.16506630
O       -0.06032692      -1.57101215      -0.00176530
C        0.73225259       0.65665720      -0.39234025
O        0.71975562       1.86124609      -0.56892731
N        1.90317659       0.10064362       0.37643440
H       -1.83247364       1.30462038      -0.01356059
H       -2.40574836      -0.26184321       0.60635586
H       -2.06057129      -0.04736347      -1.11551521
H        0.77586622       0.01810923       1.38995946
H       -0.49213229      -1.88197949      -0.80026222
H        2.03292831      -0.88284222       0.15966957
H        2.73751995       0.66150977       0.29954700
13
Frame=15 idx=001058 GeodesicLength=0.8103626140154054 rxn_smarts="[C:1]([C@@:2]([O:3][H:11])([C:4](=[O:5])[N:6]([H:12])[H:13])[H:10])([H:7])([H:8])[H:9]>>[C:1]([C:2]([O:3][H:11])=[C:4]([O-:5])[N+:6]([H:10])([H:12])[H:13])([H:7])([H:8])[H:9]"
C       -1.73020126       0.22207766      -0.10604239
C       -0.31257078      -0.18202639       0.16688633
O       -0.05438677      -1.57040851      -0.00723417
C        0.73376418       0.65728493      -0.39779149
O        0.71520611       1.86575286      -0.55643291
N        1.90254052       0.10555183       0.37188749
H       -1.82944647       1.30254891      -0.01357283
H       -2.40349802      -0.26595565       0.60219096
H       -2.05388530      -0.04711603      -1.11829977
H        0.76938940       0.02392096       1.41103793
H       -0.49625429      -1.88210658      -0.79969114
H        2.01636273      -0.88362105       0.17092556
H        2.74297995       0.65409706       0.27613643
13
Frame=16 idx=001058 GeodesicLength=0.8644876980123442 rxn_smarts="[C:1]([C@@:2]([O:3][H:11])([C:4](=[O:5])[N:6]([H:12])[H:13])[H:10])([H:7])([H:8])[H:9]>>[C:1]([C:2]([O:3][H:11])=[C:4]([O-:5])[N+:6]([H:10])([H:12])[H:13])([H:7])([H:8])[H:9]"
C       -1.72649399       0.22028697      -0.10734893
C       -0.30869212      -0.18238886       0.16864812
O       -0.04840945      -1.56975326      -0.01289741
C        0.73527363       0.65792119      -0.40339375
O        0.71079076       1.86995705      -0.54426312
N        1.90193289       0.11047001       0.36718696
H       -1.82633381       1.30051928      -0.01351775
H       -2.40112413      -0.27000246       0.59816642
H       -2.04727334      -0.04683099      -1.12095446
H        0.76254866       0.02943544       1.43230332
H       -0.50031157      -1.88220268      -0.79914521
H        2.00006937      -0.88387564       0.18228669
H        2.74802309       0.64646394       0.25292910
