12
Frame=0 idx=002627 GeodesicLength=0.0 rxn_smarts="[C:1]([C@@:2]1([H:10])[O:3][C:4]([H:11])([H:12])[C:5]1=[O:6])([H:7])([H:8])[H:9]>>[C:1]([C@@:2]1([H:10])[O:3][C:4]([H:12])=[C:5]1[O:6][H:11])([H:7])([H:8])[H:9]"
C       -1.43223250      -0.50522320      -0.40356836
C       -0.31108178      -0.20502153       0.54582040
O        0.79400330      -1.18242081       0.46038151
C        1.66321686      -0.16461093       0.25958464
C        0.73429777       0.86474145       0.19901524
O        0.71594833       2.19070082       0.07500100
H       -2.13413312       0.33054790      -0.39992814
H       -1.05434967      -0.63698193      -1.41867088
H       -1.96736711      -1.40762537      -0.10578723
H       -0.63324878      -0.14404071       1.58581691
H        0.90051922       1.18820479      -0.92385507
H        2.72442747      -0.32827045       0.12618994
12
Frame=1 idx=002627 GeodesicLength=0.09529809350203629 rxn_smarts="[C:1]([C@@:2]1([H:10])[O:3][C:4]([H:11])([H:12])[C:5]1=[O:6])([H:7])([H:8])[H:9]>>[C:1]([C@@:2]1([H:10])[O:3][C:4]([H:12])=[C:5]1[O:6][H:11])([H:7])([H:8])[H:9]"
C       -1.43954511      -0.50364332      -0.39907667
C       -0.31326832      -0.21067814       0.54702947
O        0.79335568      -1.18287147       0.44691577
C        1.66088886      -0.15979963       0.24063069
C        0.72357308       0.86567181       0.20561442
O        0.71308700       2.18452467       0.05689225
H       -2.14494579       0.32901821      -0.38209708
H       -1.06717936      -0.62314905      -1.41768597
H       -1.96877620      -1.41170143      -0.10794488
H       -0.63161199      -0.15833011       1.58894963
H        0.94565924       1.18320298      -0.93831027
H        2.72876291      -0.31224453       0.15908264
12
Frame=2 idx=002627 GeodesicLength=0.1905816477128415 rxn_smarts="[C:1]([C@@:2]1([H:10])[O:3][C:4]([H:11])([H:12])[C:5]1=[O:6])([H:7])([H:8])[H:9]>>[C:1]([C@@:2]1([H:10])[O:3][C:4]([H:12])=[C:5]1[O:6][H:11])([H:7])([H:8])[H:9]"
C       -1.44678016      -0.50216552      -0.39445288
C       -0.31517718      -0.21630999       0.54801110
O        0.79279469      -1.18320293       0.43295482
C        1.65881633      -0.15477507       0.22198580
C        0.71316865       0.86638931       0.21140782
O        0.71004813       2.17776298       0.03827448
H       -2.15568225       0.32713730      -0.36387547
H       -1.08022535      -0.60912760      -1.41651758
H       -1.96996441      -1.41586683      -0.11006439
H       -0.62943041      -0.17251814       1.59183903
H        0.99164535       1.17900913      -0.95208390
H        2.73078658      -0.29633264       0.19252118
12
Frame=3 idx=002627 GeodesicLength=0.28586122373746725 rxn_smarts="[C:1]([C@@:2]1([H:10])[O:3][C:4]([H:11])([H:12])[C:5]1=[O:6])([H:7])([H:8])[H:9]>>[C:1]([C@@:2]1([H:10])[O:3][C:4]([H:12])=[C:5]1[O:6][H:11])([H:7])([H:8])[H:9]"
C       -1.45383569      -0.50081891      -0.38976045
C       -0.31693755      -0.22185471       0.54895062
O        0.79225673      -1.18330496       0.41894137
C        1.65696911      -0.14938115       0.20442527
C        0.70297441       0.86702750       0.21686536
O        0.70669264       2.17046319       0.01900009
H       -2.16626814       0.32484799      -0.34553176
H       -1.09315232      -0.59498272      -1.41512890
H       -1.97086728      -1.42014950      -0.11228937
H       -0.62708583      -0.18652570       1.59459513
H        1.03880279       1.17552056      -0.96484856
H        2.73045114      -0.28084160       0.22478120
12
Frame=4 idx=002627 GeodesicLength=0.38114334714411346 rxn_smarts="[C:1]([C@@:2]1([H:10])[O:3][C:4]([H:11])([H:12])[C:5]1=[O:6])([H:7])([H:8])[H:9]>>[C:1]([C@@:2]1([H:10])[O:3][C:4]([H:12])=[C:5]1[O:6][H:11])([H:7])([H:8])[H:9]"
C       -1.46070007      -0.49960870      -0.38502692
C       -0.31864812      -0.22728575       0.54995047
O        0.79168649      -1.18312154       0.40508109
C        1.65528606      -0.14353648       0.18829051
C        0.69288395       0.86768272       0.22229247
O        0.70291277       2.16261231      -0.00112987
H       -2.17670933       0.32212962      -0.32718237
H       -1.10583123      -0.58071808      -1.41349819
H       -1.97148356      -1.42455884      -0.11470167
H       -0.62480221      -0.20034929       1.59728787
H        1.08734123       1.17268796      -0.97637966
H        2.72806402      -0.26593394       0.25501627
12
Frame=5 idx=002627 GeodesicLength=0.4764319977855951 rxn_smarts="[C:1]([C@@:2]1([H:10])[O:3][C:4]([H:11])([H:12])[C:5]1=[O:6])([H:7])([H:8])[H:9]>>[C:1]([C@@:2]1([H:10])[O:3][C:4]([H:12])=[C:5]1[O:6][H:11])([H:7])([H:8])[H:9]"
C       -1.46741561      -0.49852161      -0.38024650
C       -0.32036236      -0.23260743       0.55104348
O        0.79104903      -1.18263784       0.39137858
C        1.65370274      -0.13721946       0.17356137
C        0.68282034       0.86841457       0.22786223
O        0.69863397       2.15413265      -0.02236021
H       -2.18705131       0.31898814      -0.30881194
H       -1.11828605      -0.56628434      -1.41160854
H       -1.97184770      -1.42908878      -0.11733245
H       -0.62264883      -0.21405239       1.59995037
H        1.13739108       1.17051511      -0.98655540
H        2.72401469      -0.25163859       0.28311902
12
Frame=6 idx=002627 GeodesicLength=0.5717288159061941 rxn_smarts="[C:1]([C@@:2]1([H:10])[O:3][C:4]([H:11])([H:12])[C:5]1=[O:6])([H:7])([H:8])[H:9]>>[C:1]([C@@:2]1([H:10])[O:3][C:4]([H:12])=[C:5]1[O:6][H:11])([H:7])([H:8])[H:9]"
C       -1.47403599      -0.49753880      -0.37539797
C       -0.32210591      -0.23783457       0.55223471
O        0.79032418      -1.18185097       0.37775845
C        1.65216048      -0.13043013       0.16006059
C        0.67273174       0.86926519       0.23369469
O        0.69379755       2.14490103      -0.04495758
H       -2.19734285       0.31543755      -0.29035310
H       -1.13059156      -0.55161389      -1.40944024
H       -1.97199883      -1.43372730      -0.12018990
H       -0.62062104      -0.22772416       1.60259979
H        1.18906576       1.16904391      -0.99528967
H        2.71861648      -0.23792787       0.30928021
12
Frame=7 idx=002627 GeodesicLength=0.6670359457460349 rxn_smarts="[C:1]([C@@:2]1([H:10])[O:3][C:4]([H:11])([H:12])[C:5]1=[O:6])([H:7])([H:8])[H:9]>>[C:1]([C@@:2]1([H:10])[O:3][C:4]([H:12])=[C:5]1[O:6][H:11])([H:7])([H:8])[H:9]"
C       -1.48061311      -0.49664093      -0.37045283
C       -0.32389145      -0.24298241       0.55352083
O        0.78949902      -1.18075406       0.36411803
C        1.65060535      -0.12316370       0.14757388
C        0.66257836       0.87027480       0.23989435
O        0.68835239       2.13474422      -0.06921843
H       -2.20763070       0.31148711      -0.27171497
H       -1.14283459      -0.53662520      -1.40696801
H       -1.97196837      -1.43846436      -0.12327784
H       -0.61868599      -0.24146234       1.60524639
H        1.24250177       1.16834344      -1.00248754
H        2.71208733      -0.22475656       0.33376613
12
Frame=8 idx=002627 GeodesicLength=0.7623565097288595 rxn_smarts="[C:1]([C@@:2]1([H:10])[O:3][C:4]([H:11])([H:12])[C:5]1=[O:6])([H:7])([H:8])[H:9]>>[C:1]([C@@:2]1([H:10])[O:3][C:4]([H:12])=[C:5]1[O:6][H:11])([H:7])([H:8])[H:9]"
C       -1.48719523      -0.49581274      -0.36537857
C       -0.32572834      -0.24806140       0.55489875
O        0.78856244      -1.17933102       0.35035119
C        1.64898533      -0.11540177       0.13589408
C        0.65232303       0.87148917       0.24656211
O        0.68225193       2.12344271      -0.09547001
H       -2.21796172       0.30713542      -0.25279791
H       -1.15509916      -0.52123229      -1.40416024
H       -1.97177844      -1.44329737      -0.12660029
H       -0.61680648      -0.25536133       1.60789902
H        1.29788383       1.16851492      -1.00801543
H        2.70456279      -0.21208431       0.35681730
12
Frame=9 idx=002627 GeodesicLength=0.8577120063480493 rxn_smarts="[C:1]([C@@:2]1([H:10])[O:3][C:4]([H:11])([H:12])[C:5]1=[O:6])([H:7])([H:8])[H:9]>>[C:1]([C@@:2]1([H:10])[O:3][C:4]([H:12])=[C:5]1[O:6][H:11])([H:7])([H:8])[H:9]"
C       -1.49382902      -0.49503973      -0.36014080
C       -0.32762445      -0.25307425       0.55636425
O        0.78750366      -1.17754825       0.33636031
C        1.64723936      -0.10711044       0.12482872
C        0.64191676       0.87295620       0.25379254
O        0.67545785       2.11066476      -0.12406831
H       -2.22838258       0.30237109      -0.23351107
H       -1.16747675      -0.50534678      -1.40097133
H       -1.97144195      -1.44821555      -0.13015648
H       -0.61493379      -0.26950686       1.61055597
H        1.35545281       1.16970341      -1.01167080
H        2.69611809      -0.19985361       0.37861699
12
Frame=10 idx=002627 GeodesicLength=0.9530929073322076 rxn_smarts="[C:1]([C@@:2]1([H:10])[O:3][C:4]([H:11])([H:12])[C:5]1=[O:6])([H:7])([H:8])[H:9]>>[C:1]([C@@:2]1([H:10])[O:3][C:4]([H:12])=[C:5]1[O:6][H:11])([H:7])([H:8])[H:9]"
C       -1.50056760      -0.49433177      -0.35469945
C       -0.32959902      -0.25801027       0.55791456
O        0.78629937      -1.17535744       0.32205160
C        1.64530340      -0.09823000       0.11418950
C        0.63130764       0.87474560       0.26165605
O        0.66796973       2.09608318      -0.15539134
H       -2.23895400       0.29715169      -0.21376160
H       -1.18005075      -0.48892019      -1.39735448
H       -1.97097725      -1.45324223      -0.13393112
H       -0.61304464      -0.28395352       1.61322245
H        1.41554025       1.17213674      -1.01314468
H        2.68677286      -0.18807178       0.39924852
12
Frame=11 idx=002627 GeodesicLength=1.0485112532660574 rxn_smarts="[C:1]([C@@:2]1([H:10])[O:3][C:4]([H:11])([H:12])[C:5]1=[O:6])([H:7])([H:8])[H:9]>>[C:1]([C@@:2]1([H:10])[O:3][C:4]([H:12])=[C:5]1[O:6][H:11])([H:7])([H:8])[H:9]"
C       -1.50747584      -0.49370433      -0.34900421
C       -0.33166931      -0.26285137       0.55952965
O        0.78491903      -1.17269291       0.30730462
C        1.64309484      -0.08868608       0.10376901
C        0.62041271       0.87693120       0.27015996
O        0.65983396       2.07922287      -0.18987376
H       -2.24974844       0.29141578      -0.19344306
H       -1.19295151      -0.47190841      -1.39324874
H       -1.97039603      -1.45839847      -0.13788215
H       -0.61107981      -0.29873955       1.61588413
H        1.47856618       1.17613774      -1.01198607
H        2.67649422      -0.17672647       0.41879061
12
Frame=12 idx=002627 GeodesicLength=1.1439825634267509 rxn_smarts="[C:1]([C@@:2]1([H:10])[O:3][C:4]([H:11])([H:12])[C:5]1=[O:6])([H:7])([H:8])[H:9]>>[C:1]([C@@:2]1([H:10])[O:3][C:4]([H:12])=[C:5]1[O:6][H:11])([H:7])([H:8])[H:9]"
C       -1.51464862      -0.49319697      -0.34299104
C       -0.33385511      -0.26756934       0.56116240
O        0.78332485      -1.16947664       0.29195531
C        1.64052903      -0.07838649       0.09332112
C        0.60912107       0.87960103       0.27920164
O        0.65119555       2.05951360      -0.22799404
H       -2.26087004       0.28507338      -0.17243164
H       -1.20637493      -0.45431918      -1.38858608
H       -1.96973084      -1.46372771      -0.14191883
H       -0.60894959      -0.31386147       1.61850670
H        1.54505961       1.18216800      -1.00753198
H        2.66519903      -0.16581822       0.43730644
12
Frame=13 idx=002627 GeodesicLength=1.2395216942529341 rxn_smarts="[C:1]([C@@:2]1([H:10])[O:3][C:4]([H:11])([H:12])[C:5]1=[O:6])([H:7])([H:8])[H:9]>>[C:1]([C@@:2]1([H:10])[O:3][C:4]([H:12])=[C:5]1[O:6][H:11])([H:7])([H:8])[H:9]"
C       -1.52220883      -0.49287686      -0.33657968
C       -0.33617527      -0.27212241       0.56272509
O        0.78146701      -1.16561064       0.27578115
C        1.63751429      -0.06722336       0.08254101
C        0.59727712       0.88285032       0.28851467
O        0.64237286       2.03628901      -0.27026357
H       -2.27244648       0.27799878      -0.15058179
H       -1.22059765      -0.43623848      -1.38329565
H       -1.96902869      -1.46929166      -0.14588258
H       -0.60651690      -0.32924937       1.62102775
H        1.61560410       1.19084081      -0.99882573
H        2.65273845      -0.15536613       0.45483932
12
Frame=14 idx=002627 GeodesicLength=1.335135740336375 rxn_smarts="[C:1]([C@@:2]1([H:10])[O:3][C:4]([H:11])([H:12])[C:5]1=[O:6])([H:7])([H:8])[H:9]>>[C:1]([C@@:2]1([H:10])[O:3][C:4]([H:12])=[C:5]1[O:6][H:11])([H:7])([H:8])[H:9]"
C       -1.53031401      -0.49284454      -0.32968460
C       -0.33864109      -0.27645227       0.56407624
O        0.77930019      -1.16098990       0.25852515
C        1.63397982      -0.05508583       0.07104801
C        0.58468683       0.88678923       0.29761074
O        0.63397605       2.00883073      -0.31711716
H       -2.28462869       0.27005202      -0.12777493
H       -1.23599127      -0.41789848      -1.37732209
H       -1.96837903      -1.47517072      -0.14951640
H       -0.60358677      -0.34472913       1.62334656
H        1.69066563       1.20290556      -0.98457221
H        2.63893233      -0.14540668       0.47138069
12
Frame=15 idx=002627 GeodesicLength=1.4307967054291648 rxn_smarts="[C:1]([C@@:2]1([H:10])[O:3][C:4]([H:11])([H:12])[C:5]1=[O:6])([H:7])([H:8])[H:9]>>[C:1]([C@@:2]1([H:10])[O:3][C:4]([H:12])=[C:5]1[O:6][H:11])([H:7])([H:8])[H:9]"
C       -1.53910001      -0.49321825      -0.32224388
C       -0.34124703      -0.28047711       0.56502533
O        0.77678888      -1.15550114       0.23997072
C        1.62988784      -0.04187525       0.05842110
C        0.57113101       0.89152126       0.30578862
O        0.62707476       1.97653343      -0.36865073
H       -2.29751880       0.26110528      -0.10398005
H       -1.25293137      -0.39971717      -1.37065048
H       -1.96788311      -1.48143437      -0.15249225
H       -0.59994177      -0.35997970       1.62531802
H        1.77012578       1.21901200      -0.96330000
H        2.62361383      -0.13596898       0.48679358
12
Frame=16 idx=002627 GeodesicLength=1.5264443160178105 rxn_smarts="[C:1]([C@@:2]1([H:10])[O:3][C:4]([H:11])([H:12])[C:5]1=[O:6])([H:7])([H:8])[H:9]>>[C:1]([C@@:2]1([H:10])[O:3][C:4]([H:12])=[C:5]1[O:6][H:11])([H:7])([H:8])[H:9]"
C       -1.54856891      -0.49407861      -0.31429210
C       -0.34395896      -0.28410383       0.56537810
O        0.77395261      -1.14905863       0.22015328
C        1.62529338      -0.02754424       0.04435606
C        0.55644494       0.89711012       0.31226955
O        0.62328341       1.93929831      -0.42399777
H       -2.31106549       0.25111678      -0.07940086
H       -1.27157321      -0.38225010      -1.36335993
H       -1.96759666      -1.48808482      -0.15451290
H       -0.59546001      -0.37456225       1.62676751
H        1.85248053       1.23913978      -0.93415999
H        2.60676836      -0.12698250       0.50079904
