11
Frame=0 idx=004741 GeodesicLength=0.0 rxn_smarts="[N:1]([C:2](=[O:3])[N:4](/[C:5](=[N:6]/[H:11])[H:10])[H:9])([H:7])[H:8]>>[H:8][H:10].[N:1](=[C:2]=[O:3])[H:7].[N:4](=[C:5]=[N:6][H:11])[H:9]"
N       -1.50153817       0.10197692      -0.56632601
C       -1.17791520      -0.81121271       0.29508286
O       -1.66656240      -1.76794909       0.84526880
N        0.29511538      -0.58427975       0.72593219
C        1.05904903       0.38979124       0.41433556
N        1.85063387       1.26085389       0.67149091
H       -2.42589639      -0.05872718      -0.94398708
H       -0.18573062       0.52562311      -1.23742786
H        0.69828664      -1.37801950       1.20504175
H        0.65604870       0.61187236      -1.36300724
H        2.39850911       1.71007066      -0.04640385
11
Frame=1 idx=004741 GeodesicLength=0.12929317453080938 rxn_smarts="[N:1]([C:2](=[O:3])[N:4](/[C:5](=[N:6]/[H:11])[H:10])[H:9])([H:7])[H:8]>>[H:8][H:10].[N:1](=[C:2]=[O:3])[H:7].[N:4](=[C:5]=[N:6][H:11])[H:9]"
N       -1.53271353       0.10698774      -0.54178081
C       -1.18772477      -0.83042365       0.28457666
O       -1.67140721      -1.80765147       0.80026125
N        0.30707543      -0.57774366       0.73689382
C        1.07550855       0.38522356       0.40018712
N        1.92987871       1.20016068       0.65040587
H       -2.40384230      -0.10895761      -1.00885673
H       -0.24482008       0.59441376      -1.21286929
H        0.68682568      -1.31912116       1.30957710
H        0.61729491       0.66049483      -1.34320749
H        2.42392460       1.69661698      -0.07518749
11
Frame=2 idx=004741 GeodesicLength=0.25789640478004494 rxn_smarts="[N:1]([C:2](=[O:3])[N:4](/[C:5](=[N:6]/[H:11])[H:10])[H:9])([H:7])[H:8]>>[H:8][H:10].[N:1](=[C:2]=[O:3])[H:7].[N:4](=[C:5]=[N:6][H:11])[H:9]"
N       -1.56400378       0.10236693      -0.52311771
C       -1.19479206      -0.85624572       0.26760138
O       -1.66634719      -1.85862408       0.74215339
N        0.31620805      -0.56598386       0.75477164
C        1.08889527       0.38382253       0.38915326
N        2.01084406       1.13212576       0.61738212
H       -2.38074850      -0.14977340      -1.06507650
H       -0.30600367       0.66758928      -1.17902867
H        0.66514194      -1.24070848       1.42155803
H        0.57649110       0.71125087      -1.31741711
H        2.45431477       1.67418016      -0.10797982
11
Frame=3 idx=004741 GeodesicLength=0.3867481893340535 rxn_smarts="[N:1]([C:2](=[O:3])[N:4](/[C:5](=[N:6]/[H:11])[H:10])[H:9])([H:7])[H:8]>>[H:8][H:10].[N:1](=[C:2]=[O:3])[H:7].[N:4](=[C:5]=[N:6][H:11])[H:9]"
N       -1.59709935       0.08809275      -0.50837495
C       -1.19802863      -0.88856599       0.24497713
O       -1.64876685      -1.91907540       0.67486127
N        0.32167776      -0.54619915       0.78069348
C        1.09933439       0.38696746       0.38120242
N        2.09331390       1.05314884       0.57140909
H       -2.35215446      -0.19076613      -1.12269017
H       -0.37423231       0.74829033      -1.13115118
H        0.63069535      -1.14059605       1.53748541
H        0.52833488       0.77418030      -1.28175980
H        2.49692532       1.63452304      -0.14665271
11
Frame=4 idx=004741 GeodesicLength=0.5144627493034717 rxn_smarts="[N:1]([C:2](=[O:3])[N:4](/[C:5](=[N:6]/[H:11])[H:10])[H:9])([H:7])[H:8]>>[H:8][H:10].[N:1](=[C:2]=[O:3])[H:7].[N:4](=[C:5]=[N:6][H:11])[H:9]"
N       -1.63017828       0.06425137      -0.49888347
C       -1.19765069      -0.92340251       0.22078323
O       -1.61933357      -1.98245883       0.60511640
N        0.32282376      -0.51703137       0.81456049
C        1.10828466       0.39240164       0.37499245
N        2.17233944       0.96049568       0.51219695
H       -2.31173814      -0.23420176      -1.18617140
H       -0.44996452       0.83249572      -1.06781238
H        0.58565626      -1.02405748       1.64812590
H        0.47281495       0.85277396      -1.23250094
H        2.54694614       1.57873358      -0.19040723
11
Frame=5 idx=004741 GeodesicLength=0.6418736340715898 rxn_smarts="[N:1]([C:2](=[O:3])[N:4](/[C:5](=[N:6]/[H:11])[H:10])[H:9])([H:7])[H:8]>>[H:8][H:10].[N:1](=[C:2]=[O:3])[H:7].[N:4](=[C:5]=[N:6][H:11])[H:9]"
N       -1.65944377       0.03318592      -0.49775754
C       -1.19554650      -0.95691211       0.19868530
O       -1.58443985      -2.04127831       0.54114505
N        0.32218853      -0.48360293       0.85137833
C        1.11667550       0.39785952       0.37001502
N        2.23993462       0.85914271       0.44315907
H       -2.25878620      -0.27707124      -1.25358254
H       -0.52993753       0.91222016      -0.99427665
H        0.53785044      -0.90045261       1.74575482
H        0.41461982       0.94354411      -1.16889351
H        2.59688492       1.51336477      -0.23562733
11
Frame=6 idx=004741 GeodesicLength=0.7691347116359241 rxn_smarts="[N:1]([C:2](=[O:3])[N:4](/[C:5](=[N:6]/[H:11])[H:10])[H:9])([H:7])[H:8]>>[H:8][H:10].[N:1](=[C:2]=[O:3])[H:7].[N:4](=[C:5]=[N:6][H:11])[H:9]"
N       -1.68239270      -0.00107531      -0.50366818
C       -1.19369683      -0.98729023       0.18121318
O       -1.54728024      -2.09463456       0.48169284
N        0.32366303      -0.45263680       0.88687518
C        1.12409807       0.40271300       0.36661480
N        2.29113349       0.75472820       0.36663600
H       -2.19170472      -0.31488123      -1.32197937
H       -0.61170422       0.98311646      -0.91418765
H        0.48979203      -0.77106312       1.83036158
H        0.35661472       1.03912444      -1.09103920
H        2.64147738       1.44189915      -0.28251919
11
Frame=7 idx=004741 GeodesicLength=0.8964460127545787 rxn_smarts="[N:1]([C:2](=[O:3])[N:4](/[C:5](=[N:6]/[H:11])[H:10])[H:9])([H:7])[H:8]>>[H:8][H:10].[N:1](=[C:2]=[O:3])[H:7].[N:4](=[C:5]=[N:6][H:11])[H:9]"
N       -1.69897453      -0.03265073      -0.51275962
C       -1.19651548      -1.01197080       0.17201703
O       -1.51372925      -2.14054232       0.42583950
N        0.33005446      -0.42891253       0.91932050
C        1.13055019       0.40652039       0.36450685
N        2.32327045       0.65908302       0.29041154
H       -2.11335214      -0.34179100      -1.38505014
H       -0.68961923       1.03946194      -0.83653727
H        0.44799377      -0.64555864       1.89779094
H        0.30443300       1.12232310      -1.00867115
H        2.67588874       1.37403756      -0.32686817
11
Frame=8 idx=004741 GeodesicLength=1.0242010868085656 rxn_smarts="[N:1]([C:2](=[O:3])[N:4](/[C:5](=[N:6]/[H:11])[H:10])[H:9])([H:7])[H:8]>>[H:8][H:10].[N:1](=[C:2]=[O:3])[H:7].[N:4](=[C:5]=[N:6][H:11])[H:9]"
N       -1.71086034      -0.06024220      -0.52245274
C       -1.20394325      -1.03286113       0.16869693
O       -1.48337935      -2.18060802       0.37023076
N        0.34023514      -0.41067126       0.95108616
C        1.13633920       0.40865539       0.36314228
N        2.34006047       0.57542841       0.21864794
H       -2.02841036      -0.35632467      -1.43914672
H       -0.76269477       1.08276983      -0.76396931
H        0.41242851      -0.52515648       1.95070970
H        0.25917993       1.18757602      -0.92829879
H        2.70104482       1.31143411      -0.36864622
11
Frame=9 idx=004741 GeodesicLength=1.1530616506992184 rxn_smarts="[N:1]([C:2](=[O:3])[N:4](/[C:5](=[N:6]/[H:11])[H:10])[H:9])([H:7])[H:8]>>[H:8][H:10].[N:1](=[C:2]=[O:3])[H:7].[N:4](=[C:5]=[N:6][H:11])[H:9]"
N       -1.71988281      -0.08557147      -0.53167820
C       -1.21250543      -1.05307122       0.16672318
O       -1.45219244      -2.21699136       0.31309450
N        0.35162195      -0.39197284       0.98491324
C        1.14042245       0.41315448       0.36435771
N        2.34455555       0.49794306       0.14916912
H       -1.93862035      -0.35955509      -1.48381648
H       -0.83342455       1.11580615      -0.69628692
H        0.38077049      -0.40845975       1.99286133
H        0.21856293       1.23956065      -0.85067774
H        2.72069220       1.24915738      -0.40865975
11
Frame=10 idx=004741 GeodesicLength=1.2824404193812415 rxn_smarts="[N:1]([C:2](=[O:3])[N:4](/[C:5](=[N:6]/[H:11])[H:10])[H:9])([H:7])[H:8]>>[H:8][H:10].[N:1](=[C:2]=[O:3])[H:7].[N:4](=[C:5]=[N:6][H:11])[H:9]"
N       -1.72662658      -0.10803206      -0.53940791
C       -1.22107802      -1.07340069       0.16392451
O       -1.41726371      -2.25033804       0.25120768
N        0.36365183      -0.37222846       1.02132939
C        1.14399971       0.41835704       0.36804745
N        2.34034758       0.42967811       0.08898748
H       -1.85347369      -0.35204116      -1.51640868
H       -0.90070494       1.14021338      -0.63506163
H        0.35192291      -0.29500065       2.02664555
H        0.18404593       1.27714712      -0.77984177
H        2.73517898       1.18564542      -0.44942207
11
Frame=11 idx=004741 GeodesicLength=1.412730048345015 rxn_smarts="[N:1]([C:2](=[O:3])[N:4](/[C:5](=[N:6]/[H:11])[H:10])[H:9])([H:7])[H:8]>>[H:8][H:10].[N:1](=[C:2]=[O:3])[H:7].[N:4](=[C:5]=[N:6][H:11])[H:9]"
N       -1.73160486      -0.12903089      -0.54606247
C       -1.22796383      -1.09490806       0.15884446
O       -1.37694654      -2.28079274       0.18507369
N        0.37557059      -0.34909054       1.06076991
C        1.14711243       0.42593524       0.37484210
N        2.32908616       0.36618558       0.03632553
H       -1.77213003      -0.33574076      -1.53928759
H       -0.96659428       1.15828040      -0.57811278
H        0.32461312      -0.18392693       2.05409889
H        0.15365335       1.30520779      -0.71437828
H        2.74520389       1.11788092      -0.49211346
11
Frame=12 idx=004741 GeodesicLength=1.5441501624749439 rxn_smarts="[N:1]([C:2](=[O:3])[N:4](/[C:5](=[N:6]/[H:11])[H:10])[H:9])([H:7])[H:8]>>[H:8][H:10].[N:1](=[C:2]=[O:3])[H:7].[N:4](=[C:5]=[N:6][H:11])[H:9]"
N       -1.73452545      -0.14941948      -0.55279202
C       -1.23269388      -1.11773019       0.15113342
O       -1.33131327      -2.30780545       0.11572965
N        0.38703185      -0.32169987       1.10303261
C        1.15001747       0.43624897       0.38476936
N        2.31154700       0.30554090      -0.00917148
H       -1.69212559      -0.31214342      -1.55444712
H       -1.03244492       1.17131443      -0.52363314
H        0.29876977      -0.07547662       2.07671054
H        0.12618528       1.32710261      -0.65269909
H        2.74955173       1.04406811      -0.53863274
11
Frame=13 idx=004741 GeodesicLength=1.676440099018415 rxn_smarts="[N:1]([C:2](=[O:3])[N:4](/[C:5](=[N:6]/[H:11])[H:10])[H:9])([H:7])[H:8]>>[H:8][H:10].[N:1](=[C:2]=[O:3])[H:7].[N:4](=[C:5]=[N:6][H:11])[H:9]"
N       -1.73611224      -0.16879780      -0.55866817
C       -1.23554842      -1.14198674       0.14061035
O       -1.28062373      -2.33105480       0.04295302
N        0.39899563      -0.29145510       1.14705718
C        1.15363182       0.44655564       0.39552362
N        2.29089088       0.24785625      -0.04592562
H       -1.61815170      -0.28232263      -1.56143549
H       -1.09793098       1.17960528      -0.47145568
H        0.27390519       0.03245868       2.09358532
H        0.10233997       1.34236849      -0.59641497
H        2.74860357       0.96677273      -0.58582956
11
Frame=14 idx=004741 GeodesicLength=1.810222632008163 rxn_smarts="[N:1]([C:2](=[O:3])[N:4](/[C:5](=[N:6]/[H:11])[H:10])[H:9])([H:7])[H:8]>>[H:8][H:10].[N:1](=[C:2]=[O:3])[H:7].[N:4](=[C:5]=[N:6][H:11])[H:9]"
N       -1.73550508      -0.18828020      -0.56597601
C       -1.23678917      -1.16758459       0.12742133
O       -1.22785593      -2.35031993      -0.03016614
N        0.41174592      -0.25820653       1.19217741
C        1.15764168       0.45731024       0.40649312
N        2.26675971       0.19151776      -0.07656524
H       -1.54236710      -0.24734281      -1.56215142
H       -1.16511746       1.18337754      -0.41886405
H        0.25006935       0.13935137       2.10454643
H        0.08020365       1.35506096      -0.54195745
H        2.74121444       0.88511620      -0.63495798
11
Frame=15 idx=004741 GeodesicLength=1.9450688677412964 rxn_smarts="[N:1]([C:2](=[O:3])[N:4](/[C:5](=[N:6]/[H:11])[H:10])[H:9])([H:7])[H:8]>>[H:8][H:10].[N:1](=[C:2]=[O:3])[H:7].[N:4](=[C:5]=[N:6][H:11])[H:9]"
N       -1.73406589      -0.20713694      -0.57261947
C       -1.23610292      -1.19463504       0.11107162
O       -1.17121029      -2.36549704      -0.10584896
N        0.42549639      -0.22141926       1.23798550
C        1.16249720       0.46793268       0.41688580
N        2.24118263       0.13628130      -0.09996153
H       -1.47341611      -0.20787209      -1.55549889
H       -1.23341831       1.18247531      -0.36736295
H        0.22807988       0.24592792       2.10946141
H        0.06106106       1.36341929      -0.49268487
H        2.72989634       0.80052388      -0.68142765
11
Frame=16 idx=004741 GeodesicLength=2.079891554970091 rxn_smarts="[N:1]([C:2](=[O:3])[N:4](/[C:5](=[N:6]/[H:11])[H:10])[H:9])([H:7])[H:8]>>[H:8][H:10].[N:1](=[C:2]=[O:3])[H:7].[N:4](=[C:5]=[N:6][H:11])[H:9]"
N       -1.73322936      -0.22499739      -0.57638548
C       -1.23239787      -1.22328741       0.09068345
O       -1.10975543      -2.37608191      -0.18613527
N        0.44003841      -0.17995813       1.28399323
C        1.16859768       0.47888981       0.42683158
N        2.21585977       0.08214323      -0.11460619
H       -1.42013312      -0.16548472      -1.54240013
H       -1.30224470       1.17721150      -0.31815202
H        0.21003976       0.35178495       2.10952069
H        0.04612544       1.36624822      -0.45175021
H        2.71709942       0.71353185      -0.72159964
