11
Frame=0 idx=002066 GeodesicLength=0.0 rxn_smarts="[C:1]([c:2]1[c:3]([H:10])[o:4][c:5]([H:11])[n:6]1)([H:7])([H:8])[H:9]>>[C:1]([C:3](=[C:2]=[N:6][C:5](=[O:4])[H:11])[H:10])([H:7])([H:8])[H:9]"
C       -1.60203080      -0.21184641      -0.02920159
C        0.02707745       0.06439974      -0.00721748
C       -0.40435749       1.27311416       0.18623918
O        2.55869529       0.63488412       0.06219575
C        2.16497883      -0.45494702      -0.27440699
N        0.83616875      -0.87728360      -0.30976358
H       -1.67542634      -1.02891878       0.68601032
H       -1.79369474      -0.51336860      -1.05361481
H       -2.32076821       0.56416162       0.23761570
H       -0.64674907       1.79800339       1.09701305
H        2.85610628      -1.24819863      -0.59486953
11
Frame=1 idx=002066 GeodesicLength=0.07697351464069999 rxn_smarts="[C:1]([c:2]1[c:3]([H:10])[o:4][c:5]([H:11])[n:6]1)([H:7])([H:8])[H:9]>>[C:1]([C:3](=[C:2]=[N:6][C:5](=[O:4])[H:11])[H:10])([H:7])([H:8])[H:9]"
C       -1.61392157      -0.20484198      -0.03207392
C        0.03103854       0.01576530       0.05782114
C       -0.37129932       1.24192824       0.20577513
O        2.52498806       0.66756581       0.02159181
C        2.16729665      -0.45024220      -0.27499957
N        0.85225901      -0.90760595      -0.27109547
H       -1.74486441      -1.01487331       0.68342519
H       -1.77413789      -0.51590276      -1.05941556
H       -2.32481142       0.59054424       0.19572554
H       -0.62152949       1.79191577       1.09959470
H        2.87498185      -1.21425315      -0.62634900
11
Frame=2 idx=002066 GeodesicLength=0.15407121253742254 rxn_smarts="[C:1]([c:2]1[c:3]([H:10])[o:4][c:5]([H:11])[n:6]1)([H:7])([H:8])[H:9]>>[C:1]([C:3](=[C:2]=[N:6][C:5](=[O:4])[H:11])[H:10])([H:7])([H:8])[H:9]"
C       -1.62365981      -0.19802981      -0.03453473
C        0.03382056      -0.02946255       0.11343953
C       -0.34000762       1.21098070       0.22318095
O        2.48807149       0.69680557      -0.01200999
C        2.16823917      -0.44508295      -0.27375044
N        0.86793234      -0.93400899      -0.23891518
H       -1.80712304      -0.99772342       0.68148509
H       -1.75779586      -0.52136558      -1.06219110
H       -2.32576672       0.61471955       0.15593642
H       -0.59356710       1.78352217       1.10186119
H        2.88985659      -1.18035470      -0.65450175
11
Frame=3 idx=002066 GeodesicLength=0.230996040053839 rxn_smarts="[C:1]([c:2]1[c:3]([H:10])[o:4][c:5]([H:11])[n:6]1)([H:7])([H:8])[H:9]>>[C:1]([C:3](=[C:2]=[N:6][C:5](=[O:4])[H:11])[H:10])([H:7])([H:8])[H:9]"
C       -1.63186876      -0.19144079      -0.03679486
C        0.03589697      -0.07134967       0.16009396
C       -0.31061628       1.18085313       0.23743403
O        2.45040420       0.72181149      -0.03549453
C        2.16892655      -0.44024580      -0.26893568
N        0.88376435      -0.95813047      -0.20881929
H       -1.86318623      -0.97716747       0.68124448
H       -1.74467251      -0.53034034      -1.06234352
H       -2.32453877       0.63696964       0.11713609
H       -0.56416410       1.77361165       1.10269532
H        2.90005460      -1.14457137      -0.68621598
11
Frame=4 idx=002066 GeodesicLength=0.3080387460186581 rxn_smarts="[C:1]([c:2]1[c:3]([H:10])[o:4][c:5]([H:11])[n:6]1)([H:7])([H:8])[H:9]>>[C:1]([C:3](=[C:2]=[N:6][C:5](=[O:4])[H:11])[H:10])([H:7])([H:8])[H:9]"
C       -1.63914180      -0.18480048      -0.03877652
C        0.03759646      -0.11041689       0.19935638
C       -0.28316774       1.15145971       0.25061899
O        2.41224123       0.74462235      -0.05544236
C        2.16896891      -0.43428889      -0.26640843
N        0.89958751      -0.97967780      -0.18306120
H       -1.91436392      -0.95437886       0.68168689
H       -1.73479114      -0.54093766      -1.06058221
H       -2.32193748       0.65751303       0.07973902
H       -0.53396527       1.76137626       1.10479047
H        2.90897323      -1.11047076      -0.71192103
11
Frame=5 idx=002066 GeodesicLength=0.3850929499899677 rxn_smarts="[C:1]([c:2]1[c:3]([H:10])[o:4][c:5]([H:11])[n:6]1)([H:7])([H:8])[H:9]>>[C:1]([C:3](=[C:2]=[N:6][C:5](=[O:4])[H:11])[H:10])([H:7])([H:8])[H:9]"
C       -1.64572816      -0.17816093      -0.04056054
C        0.03916090      -0.14713965       0.23269415
C       -0.25744159       1.12285028       0.26219375
O        2.37462357       0.76493855      -0.07034715
C        2.16890259      -0.42804417      -0.26397191
N        0.91569065      -0.99939597      -0.15964829
H       -1.96147865      -0.92942419       0.68304214
H       -1.72772802      -0.55327232      -1.05713581
H       -2.31832791       0.67646119       0.04319071
H       -0.50365879       1.74780019       1.10690947
H        2.91598540      -1.07661298      -0.73636653
11
Frame=6 idx=002066 GeodesicLength=0.4621499610307609 rxn_smarts="[C:1]([c:2]1[c:3]([H:10])[o:4][c:5]([H:11])[n:6]1)([H:7])([H:8])[H:9]>>[C:1]([C:3](=[C:2]=[N:6][C:5](=[O:4])[H:11])[H:10])([H:7])([H:8])[H:9]"
C       -1.65174960      -0.17144226      -0.04226259
C        0.04073722      -0.18194661       0.26143314
C       -0.23328022       1.09492383       0.27279870
O        2.33763838       0.78335766      -0.08213168
C        2.16874173      -0.42149953      -0.26201889
N        0.93215451      -1.01757625      -0.13787445
H       -2.00527271      -0.90255348       0.68494220
H       -1.72293227      -0.56683556      -1.05234131
H       -2.31391223       0.69397859       0.00709830
H       -0.47369425       1.73293103       1.10953000
H        2.92156945      -1.04333743      -0.75917342
11
Frame=7 idx=002066 GeodesicLength=0.53920697271161 rxn_smarts="[C:1]([c:2]1[c:3]([H:10])[o:4][c:5]([H:11])[n:6]1)([H:7])([H:8])[H:9]>>[C:1]([C:3](=[C:2]=[N:6][C:5](=[O:4])[H:11])[H:10])([H:7])([H:8])[H:9]"
C       -1.65737460      -0.16457909      -0.04385764
C        0.04240259      -0.21517611       0.28622300
C       -0.21056265       1.06759884       0.28273512
O        2.30126128       0.80029596      -0.09212173
C        2.16854012      -0.41465131      -0.26067408
N        0.94893602      -1.03431930      -0.11800082
H       -2.04621139      -0.87404325       0.68719528
H       -1.72032519      -0.58118746      -1.04633540
H       -2.30891162       0.71018301      -0.02849377
H       -0.44424558       1.71681353       1.11288047
H        2.92649104      -1.01093484      -0.77955042
11
Frame=8 idx=002066 GeodesicLength=0.6162515891310962 rxn_smarts="[C:1]([c:2]1[c:3]([H:10])[o:4][c:5]([H:11])[n:6]1)([H:7])([H:8])[H:9]>>[C:1]([C:3](=[C:2]=[N:6][C:5](=[O:4])[H:11])[H:10])([H:7])([H:8])[H:9]"
C       -1.66259070      -0.15758446      -0.04546064
C        0.04422986      -0.24707727       0.30798491
C       -0.18911453       1.04083022       0.29211011
O        2.26570705       0.81576939      -0.10005171
C        2.16831966      -0.40763655      -0.25976199
N        0.96616958      -1.04991744      -0.09889113
H       -2.08468740      -0.84389169       0.68968544
H       -1.71940063      -0.59633839      -1.03924014
H       -2.30335190       0.72511004      -0.06405105
H       -0.41559491       1.69977067       1.11673753
H        2.93031391      -0.97903452      -0.79906133
11
Frame=9 idx=002066 GeodesicLength=0.6932732832870863 rxn_smarts="[C:1]([c:2]1[c:3]([H:10])[o:4][c:5]([H:11])[n:6]1)([H:7])([H:8])[H:9]>>[C:1]([C:3](=[C:2]=[N:6][C:5](=[O:4])[H:11])[H:10])([H:7])([H:8])[H:9]"
C       -1.66744779      -0.15045001      -0.04705445
C        0.04626452      -0.27784604       0.32719761
C       -0.16880776       1.01456947       0.30097770
O        2.23105995       0.82988213      -0.10602214
C        2.16810736      -0.40051412      -0.25924920
N        0.98385188      -1.06447524      -0.08040782
H       -2.12094707      -0.81227998       0.69227249
H       -1.72001184      -0.61210456      -1.03108014
H       -2.29733523       0.73876658      -0.09958999
H       -0.38784813       1.68202848       1.12092857
H        2.93311412      -0.94757672      -0.81797262
11
Frame=10 idx=002066 GeodesicLength=0.770231860446874 rxn_smarts="[C:1]([c:2]1[c:3]([H:10])[o:4][c:5]([H:11])[n:6]1)([H:7])([H:8])[H:9]>>[C:1]([C:3](=[C:2]=[N:6][C:5](=[O:4])[H:11])[H:10])([H:7])([H:8])[H:9]"
C       -1.67189974      -0.14323689      -0.04871867
C        0.04855311      -0.30757722       0.34445455
C       -0.14947999       0.98882586       0.30915697
O        2.19773041       0.84250421      -0.10893204
C        2.16790435      -0.39343286      -0.25900250
N        1.00208651      -1.07817578      -0.06164626
H       -2.15509891      -0.77935812       0.69480813
H       -1.72182972      -0.62847598      -1.02192262
H       -2.29091332       0.75104694      -0.13520521
H       -0.36116878       1.66405353       1.12485297
H        2.93411607      -0.91617369      -0.83784531
11
Frame=11 idx=002066 GeodesicLength=0.8472516998391115 rxn_smarts="[C:1]([c:2]1[c:3]([H:10])[o:4][c:5]([H:11])[n:6]1)([H:7])([H:8])[H:9]>>[C:1]([C:3](=[C:2]=[N:6][C:5](=[O:4])[H:11])[H:10])([H:7])([H:8])[H:9]"
C       -1.67595064      -0.13578232      -0.05058670
C        0.05108983      -0.33657014       0.36003085
C       -0.13111760       0.96340988       0.31775895
O        2.16471832       0.85442098      -0.11222641
C        2.16761717      -0.38613200      -0.25929610
N        1.02092316      -1.09094979      -0.04279300
H       -2.18760227      -0.74481569       0.69703553
H       -1.72460914      -0.64528064      -1.01184422
H       -2.28385371       0.76222827      -0.17155265
H       -0.33549981       1.64497904       1.13023118
H        2.93428469      -0.88550760      -0.85675744
11
Frame=12 idx=002066 GeodesicLength=0.924293235362817 rxn_smarts="[C:1]([c:2]1[c:3]([H:10])[o:4][c:5]([H:11])[n:6]1)([H:7])([H:8])[H:9]>>[C:1]([C:3](=[C:2]=[N:6][C:5](=[O:4])[H:11])[H:10])([H:7])([H:8])[H:9]"
C       -1.67962305      -0.12812546      -0.05265067
C        0.05389407      -0.36489682       0.37408861
C       -0.11362753       0.93832961       0.32649984
O        2.13225918       0.86551055      -0.11504595
C        2.16726089      -0.37869663      -0.26001907
N        1.04038341      -1.10284764      -0.02365939
H       -2.21843499      -0.70884163       0.69887970
H       -1.72837109      -0.66240580      -1.00083906
H       -2.27625807       0.77220946      -0.20839842
H       -0.31086495       1.62514452       1.13652195
H        2.93338213      -0.85538016      -0.87537755
11
Frame=13 idx=002066 GeodesicLength=1.0013491352876822 rxn_smarts="[C:1]([c:2]1[c:3]([H:10])[o:4][c:5]([H:11])[n:6]1)([H:7])([H:8])[H:9]>>[C:1]([C:3](=[C:2]=[N:6][C:5](=[O:4])[H:11])[H:10])([H:7])([H:8])[H:9]"
C       -1.68285991      -0.12029503      -0.05497739
C        0.05699816      -0.39263343       0.38693208
C       -0.09690432       0.91356553       0.33535526
O        2.10050962       0.87572744      -0.11681740
C        2.16681699      -0.37118885      -0.26109670
N        1.06055642      -1.11389975      -0.00374132
H       -2.24765293      -0.67144560       0.70020688
H       -1.73292086      -0.67987529      -0.98889251
H       -2.26807419       0.78090663      -0.24589959
H       -0.28733010       1.60473775       1.14351302
H        2.93086112      -0.82559939      -0.89458232
11
Frame=14 idx=002066 GeodesicLength=1.0784207085867836 rxn_smarts="[C:1]([c:2]1[c:3]([H:10])[o:4][c:5]([H:11])[n:6]1)([H:7])([H:8])[H:9]>>[C:1]([C:3](=[C:2]=[N:6][C:5](=[O:4])[H:11])[H:10])([H:7])([H:8])[H:9]"
C       -1.68568083      -0.11228297      -0.05757631
C        0.06041576      -0.41987542       0.39859991
C       -0.08089503       0.88907636       0.34435689
O        2.06938712       0.88518156      -0.11779417
C        2.16628898      -0.36359767      -0.26248598
N        1.08145833      -1.12405657       0.01691972
H       -2.27528768      -0.63271678       0.70091089
H       -1.73828016      -0.69752591      -0.97600904
H       -2.25934361       0.78829404      -0.28395396
H       -0.26485216       1.58374490       1.15123604
H        2.92678929      -0.79624155      -0.91420397
11
Frame=15 idx=002066 GeodesicLength=1.1555075912643593 rxn_smarts="[C:1]([c:2]1[c:3]([H:10])[o:4][c:5]([H:11])[n:6]1)([H:7])([H:8])[H:9]>>[C:1]([C:3](=[C:2]=[N:6][C:5](=[O:4])[H:11])[H:10])([H:7])([H:8])[H:9]"
C       -1.68810684      -0.10408335      -0.06046182
C        0.06416193      -0.44670850       0.40908276
C       -0.06555129       0.86482267       0.35349423
O        2.03883406       0.89395724      -0.11812548
C        2.16569127      -0.35591468      -0.26412458
N        1.10310597      -1.13326381       0.03828913
H       -2.30134511      -0.59272557       0.70092076
H       -1.74449387      -0.71521664      -0.96218928
H       -2.25012709       0.79434743      -0.32245082
H       -0.24338460       1.56214385       1.15968689
H        2.92121556      -0.76735864      -0.93412180
11
Frame=16 idx=002066 GeodesicLength=1.232612845428352 rxn_smarts="[C:1]([c:2]1[c:3]([H:10])[o:4][c:5]([H:11])[n:6]1)([H:7])([H:8])[H:9]>>[C:1]([C:3](=[C:2]=[N:6][C:5](=[O:4])[H:11])[H:10])([H:7])([H:8])[H:9]"
C       -1.69022313      -0.09566772      -0.06359190
C        0.06823525      -0.47323332       0.41819592
C       -0.05085994       0.84074723       0.36273422
O        2.00864796       0.90218813      -0.11836029
C        2.16506387      -0.34809534      -0.26594994
N        1.12545158      -1.14144890       0.06000924
H       -2.32582867      -0.55158951       0.70023992
H       -1.75174958      -0.73270466      -0.94743382
H       -2.24058465       0.79909467      -0.36111202
H       -0.22281060       1.53981752       1.16892286
H        2.91465793      -0.73910810      -0.95365419
