11
Frame=0 idx=003429 GeodesicLength=0.0 rxn_smarts="[C:1]([C:2](=[O:3])[N:4]([C:5](=[O:6])[H:11])[H:10])([H:7])([H:8])[H:9]>>[C:1]([C:2](=[O:3])[H:11])([H:7])([H:8])[H:9].[N:4](=[C:5]=[O:6])[H:10]"
C       -1.40987194       0.34285061      -0.25354669
C       -0.22354551       0.41806706       0.66496153
O       -0.17444775       0.71945236       1.80344855
N        0.79117608      -1.08434339       0.14903200
C        1.61596568      -0.23569867      -0.33702788
O        2.65827636       0.02890540      -0.81717303
H       -1.12197738       0.08348996      -1.26727993
H       -1.90622314       1.31345846      -0.23537405
H       -2.08982823      -0.41124735       0.14272361
H        1.06468112      -2.05146998       0.27512007
H        0.79579476       0.87653555      -0.12488417
11
Frame=1 idx=003429 GeodesicLength=0.10482147492613741 rxn_smarts="[C:1]([C:2](=[O:3])[N:4]([C:5](=[O:6])[H:11])[H:10])([H:7])([H:8])[H:9]>>[C:1]([C:2](=[O:3])[H:11])([H:7])([H:8])[H:9].[N:4](=[C:5]=[O:6])[H:10]"
C       -1.42895285       0.34261492      -0.24985362
C       -0.22930246       0.42457444       0.64998458
O       -0.17716327       0.70652305       1.79474077
N        0.82174671      -1.06622490       0.16086152
C        1.64536050      -0.23542311      -0.35535071
O        2.71005436       0.00472038      -0.79828455
H       -1.15372704       0.08843093      -1.26878659
H       -1.93385988       1.30856777      -0.22277456
H       -2.10021078      -0.41777109       0.14937206
H        1.03674066      -2.04807867       0.27142534
H        0.80931405       0.89206629      -0.13133425
11
Frame=2 idx=003429 GeodesicLength=0.20948801727209027 rxn_smarts="[C:1]([C:2](=[O:3])[N:4]([C:5](=[O:6])[H:11])[H:10])([H:7])([H:8])[H:9]>>[C:1]([C:2](=[O:3])[H:11])([H:7])([H:8])[H:9].[N:4](=[C:5]=[O:6])[H:10]"
C       -1.44733616       0.34084982      -0.24588045
C       -0.23482415       0.43161972       0.63522063
O       -0.18038717       0.69594894       1.78558378
N        0.85488679      -1.04620232       0.17607287
C        1.67744153      -0.23466465      -0.37048240
O        2.76098914      -0.02127172      -0.78097815
H       -1.18459237       0.09142847      -1.26966725
H       -1.96161935       1.30156893      -0.21067819
H       -2.10919318      -0.42609430       0.15665193
H        1.00084531      -2.04154685       0.26076469
H        0.82378961       0.90836396      -0.13660744
11
Frame=3 idx=003429 GeodesicLength=0.31419208398358495 rxn_smarts="[C:1]([C:2](=[O:3])[N:4]([C:5](=[O:6])[H:11])[H:10])([H:7])([H:8])[H:9]>>[C:1]([C:2](=[O:3])[H:11])([H:7])([H:8])[H:9].[N:4](=[C:5]=[O:6])[H:10]"
C       -1.46455674       0.33665325      -0.24137381
C       -0.23983933       0.43948427       0.62100350
O       -0.18411684       0.68911784       1.77614692
N        0.89134294      -1.02400401       0.19655186
C        1.71298565      -0.23320188      -0.38038322
O        2.81145088      -0.04941803      -0.76574776
H       -1.21393945       0.09030039      -1.26931338
H       -1.98911909       1.29154072      -0.20012788
H       -2.11627686      -0.43664216       0.16564774
H        0.95271006      -2.02936792       0.23815707
H        0.83935877       0.92553753      -0.14056105
11
Frame=4 idx=003429 GeodesicLength=0.41928151940098474 rxn_smarts="[C:1]([C:2](=[O:3])[N:4]([C:5](=[O:6])[H:11])[H:10])([H:7])([H:8])[H:9]>>[C:1]([C:2](=[O:3])[H:11])([H:7])([H:8])[H:9].[N:4](=[C:5]=[O:6])[H:10]"
C       -1.48119020       0.33086557      -0.23667952
C       -0.24459608       0.44647797       0.60676488
O       -0.18806540       0.68282186       1.76628803
N        0.92945033      -1.00139320       0.21808657
C        1.75136521      -0.23172385      -0.38647055
O        2.86154641      -0.08019058      -0.75292664
H       -1.24285978       0.08750664      -1.26862719
H       -2.01622472       1.27963994      -0.18959324
H       -2.12246902      -0.44879930       0.17488474
H        0.89732692      -2.00804592       0.21148778
H        0.85571633       0.94284088      -0.14321486
11
Frame=5 idx=003429 GeodesicLength=0.5245485505500957 rxn_smarts="[C:1]([C:2](=[O:3])[N:4]([C:5](=[O:6])[H:11])[H:10])([H:7])([H:8])[H:9]>>[C:1]([C:2](=[O:3])[H:11])([H:7])([H:8])[H:9].[N:4](=[C:5]=[O:6])[H:10]"
C       -1.49865936       0.32564565      -0.23249929
C       -0.24985317       0.45083672       0.59140431
O       -0.19204072       0.67250324       1.75545415
N        0.96617398      -0.98042473       0.23439247
C        1.79105992      -0.23117268      -0.39194992
O        2.91100792      -0.11364840      -0.74204602
H       -1.27367326       0.08826321      -1.26919850
H       -2.04342322       1.26836482      -0.17649474
H       -2.12971481      -0.46102633       0.18162950
H        0.84698951      -1.97875890       0.19418254
H        0.87213320       0.95941741      -0.14487450
11
Frame=6 idx=003429 GeodesicLength=0.6298558907770598 rxn_smarts="[C:1]([C:2](=[O:3])[N:4]([C:5](=[O:6])[H:11])[H:10])([H:7])([H:8])[H:9]>>[C:1]([C:2](=[O:3])[H:11])([H:7])([H:8])[H:9].[N:4](=[C:5]=[O:6])[H:10]"
C       -1.51736256       0.32107709      -0.22854408
C       -0.25573296       0.45328688       0.57471813
O       -0.19580266       0.65961311       1.74324137
N        1.00125564      -0.96067622       0.24617268
C        1.83220313      -0.23134918      -0.39635464
O        2.96049311      -0.14962055      -0.73088082
H       -1.30717355       0.09143189      -1.27046317
H       -2.07078419       1.25799871      -0.16141091
H       -2.13853015      -0.47266374       0.18716886
H        0.80321699      -1.94454268       0.18278018
H        0.88821719       0.97544469      -0.14642760
11
Frame=7 idx=003429 GeodesicLength=0.7349927521503598 rxn_smarts="[C:1]([C:2](=[O:3])[N:4]([C:5](=[O:6])[H:11])[H:10])([H:7])([H:8])[H:9]>>[C:1]([C:2](=[O:3])[H:11])([H:7])([H:8])[H:9].[N:4](=[C:5]=[O:6])[H:10]"
C       -1.53756955       0.31745482      -0.22479918
C       -0.26240210       0.45404514       0.55653195
O       -0.19938288       0.64448150       1.72942134
N        1.03453316      -0.94190382       0.25352838
C        1.87470861      -0.23210802      -0.39985478
O        3.01003591      -0.18789825      -0.71879596
H       -1.34382444       0.09723107      -1.27231362
H       -2.09841399       1.24888706      -0.14432671
H       -2.14923895      -0.48334743       0.19158770
H        0.76783568      -1.90790876       0.17715160
H        0.90371855       0.99106669      -0.14813072
11
Frame=8 idx=003429 GeodesicLength=0.8399741169867277 rxn_smarts="[C:1]([C:2](=[O:3])[N:4]([C:5](=[O:6])[H:11])[H:10])([H:7])([H:8])[H:9]>>[C:1]([C:2](=[O:3])[H:11])([H:7])([H:8])[H:9].[N:4](=[C:5]=[O:6])[H:10]"
C       -1.55922909       0.31465346      -0.22115972
C       -0.26985349       0.45348446       0.53684721
O       -0.20283857       0.62794732       1.71393296
N        1.06636329      -0.92366290       0.25740096
C        1.91879234      -0.23317615      -0.40206164
O        3.05966041      -0.22846371      -0.70559111
H       -1.38360109       0.10519410      -1.27447334
H       -2.12633904       1.24084367      -0.12547447
H       -2.16170239      -0.49318114       0.19524156
H        0.74016431      -1.87019355       0.17545146
H        0.91858332       1.00655443      -0.15011387
11
Frame=9 idx=003429 GeodesicLength=0.944759898451258 rxn_smarts="[C:1]([C:2](=[O:3])[N:4]([C:5](=[O:6])[H:11])[H:10])([H:7])([H:8])[H:9]>>[C:1]([C:2](=[O:3])[H:11])([H:7])([H:8])[H:9].[N:4](=[C:5]=[O:6])[H:10]"
C       -1.58235457       0.31205718      -0.21694082
C       -0.27777697       0.45222326       0.51532171
O       -0.20526675       0.61171800       1.69612847
N        1.09708487      -0.90556403       0.25841717
C        1.96519747      -0.23447467      -0.40183291
O        3.11051062      -0.27104909      -0.68775347
H       -1.42709085       0.11298675      -1.27580862
H       -2.15442354       1.23338138      -0.10537508
H       -2.17579663      -0.50194897       0.20046959
H        0.71732296      -1.83107173       0.17139731
H        0.93259339       1.02174193      -0.15402334
11
Frame=10 idx=003429 GeodesicLength=1.0494326656846973 rxn_smarts="[C:1]([C:2](=[O:3])[N:4]([C:5](=[O:6])[H:11])[H:10])([H:7])([H:8])[H:9]>>[C:1]([C:2](=[O:3])[H:11])([H:7])([H:8])[H:9].[N:4](=[C:5]=[O:6])[H:10]"
C       -1.60683231       0.30989821      -0.21246039
C       -0.28637574       0.45004272       0.49209244
O       -0.20727788       0.59535454       1.67634646
N        1.12692862      -0.88742457       0.25686168
C        2.01376316      -0.23571898      -0.39931899
O        3.16169525      -0.31585339      -0.66733074
H       -1.47389193       0.12168324      -1.27672825
H       -2.18262866       1.22665448      -0.08380853
H       -2.19143341      -0.50995386       0.20613022
H        0.70026238      -1.79167168       0.16731985
H        0.94579052       1.03698929      -0.15910375
11
Frame=11 idx=003429 GeodesicLength=1.1539438550656373 rxn_smarts="[C:1]([C:2](=[O:3])[N:4]([C:5](=[O:6])[H:11])[H:10])([H:7])([H:8])[H:9]>>[C:1]([C:2](=[O:3])[H:11])([H:7])([H:8])[H:9].[N:4](=[C:5]=[O:6])[H:10]"
C       -1.63253784       0.30806940      -0.20768196
C       -0.29566894       0.44693477       0.46713904
O       -0.20899486       0.57904197       1.65451769
N        1.15621564      -0.86890380       0.25313438
C        2.06469825      -0.23663416      -0.39386068
O        3.21284617      -0.36314594      -0.64475889
H       -1.52385408       0.13108605      -1.27700252
H       -2.21081763       1.22051864      -0.06089754
H       -2.20846965      -0.51726607       0.21228382
H        0.68848854      -1.75211623       0.16244723
H        0.95809440       1.05241536      -0.16532058
11
Frame=12 idx=003429 GeodesicLength=1.258324194948839 rxn_smarts="[C:1]([C:2](=[O:3])[N:4]([C:5](=[O:6])[H:11])[H:10])([H:7])([H:8])[H:9]>>[C:1]([C:2](=[O:3])[H:11])([H:7])([H:8])[H:9].[N:4](=[C:5]=[O:6])[H:10]"
C       -1.65961992       0.30641308      -0.20206746
C       -0.30546576       0.44292281       0.43994184
O       -0.20942604       0.56334802       1.63002320
N        1.18492697      -0.85013156       0.24640995
C        2.11820654      -0.23756966      -0.38563198
O        3.26495446      -0.41182180      -0.61609477
H       -1.57784600       0.14019974      -1.27588789
H       -2.23872132       1.21509922      -0.03643776
H       -2.22702737      -0.52354511       0.22052538
H        0.68073118      -1.71252648       0.15370493
H        0.96928727       1.06761173      -0.17448543
11
Frame=13 idx=003429 GeodesicLength=1.3625451893824538 rxn_smarts="[C:1]([C:2](=[O:3])[N:4]([C:5](=[O:6])[H:11])[H:10])([H:7])([H:8])[H:9]>>[C:1]([C:2](=[O:3])[H:11])([H:7])([H:8])[H:9].[N:4](=[C:5]=[O:6])[H:10]"
C       -1.68756074       0.30484363      -0.19623052
C       -0.31604591       0.43789580       0.41112638
O       -0.21003023       0.54795242       1.60362810
N        1.21366908      -0.83037346       0.23848000
C        2.17453922      -0.23748125      -0.37226613
O        3.31570476      -0.46379665      -0.58750077
H       -1.63437598       0.14965734      -1.27387784
H       -2.26621782       1.21002736      -0.01105136
H       -2.24667379      -0.52936850       0.22918699
H        0.67752008      -1.67265521       0.14303432
H        0.97947133       1.08329851      -0.18452917
11
Frame=14 idx=003429 GeodesicLength=1.4666224183280856 rxn_smarts="[C:1]([C:2](=[O:3])[N:4]([C:5](=[O:6])[H:11])[H:10])([H:7])([H:8])[H:9]>>[C:1]([C:2](=[O:3])[H:11])([H:7])([H:8])[H:9].[N:4](=[C:5]=[O:6])[H:10]"
C       -1.71666457       0.30342668      -0.18941741
C       -0.32715862       0.43154963       0.37983273
O       -0.20920432       0.53302486       1.57431124
N        1.24220932      -0.81018982       0.22730572
C        2.23332844      -0.23750838      -0.35552282
O        3.36677396      -0.51642383      -0.55216844
H       -1.69490951       0.15880960      -1.27000767
H       -2.29284114       1.20581996       0.01598971
H       -2.26772669      -0.53405456       0.24021516
H        0.67781746      -1.63302582       0.12764492
H        0.98837566       1.09857169      -0.19818315
11
Frame=15 idx=003429 GeodesicLength=1.5705540685439607 rxn_smarts="[C:1]([C:2](=[O:3])[N:4]([C:5](=[O:6])[H:11])[H:10])([H:7])([H:8])[H:9]>>[C:1]([C:2](=[O:3])[H:11])([H:7])([H:8])[H:9].[N:4](=[C:5]=[O:6])[H:10]"
C       -1.74603825       0.30186028      -0.18288878
C       -0.33922791       0.42392112       0.34739642
O       -0.20965565       0.51827489       1.54367124
N        1.27144427      -0.78812483       0.21660168
C        2.29513980      -0.23553338      -0.33008722
O        3.41400388      -0.57377984      -0.52287526
H       -1.75650229       0.16815471      -1.26543464
H       -2.31856751       1.20169568       0.04291604
H       -2.28955076      -0.53857112       0.25074208
H        0.68276491      -1.59275465       0.11126639
H        0.99618952       1.11485715      -0.21130795
11
Frame=16 idx=003429 GeodesicLength=1.6742382522072712 rxn_smarts="[C:1]([C:2](=[O:3])[N:4]([C:5](=[O:6])[H:11])[H:10])([H:7])([H:8])[H:9]>>[C:1]([C:2](=[O:3])[H:11])([H:7])([H:8])[H:9].[N:4](=[C:5]=[O:6])[H:10]"
C       -1.77657199       0.30077666      -0.17473454
C       -0.35167208       0.41396174       0.31167511
O       -0.20723641       0.50316645       1.50913672
N        1.30050314      -0.76632069       0.20014195
C        2.35791324      -0.23568073      -0.30471865
O        3.46249219      -0.62745379      -0.47953072
H       -1.82310702       0.17751579      -1.25795629
H       -2.34227298       1.19931242       0.07244334
H       -2.31304717      -0.54113073       0.26492417
H        0.69052335      -1.55383912       0.08899738
H        1.00247574       1.12969200      -0.23037848
