15
Frame=0 idx=005954 GeodesicLength=0.0 rxn_smarts="[C:1]([C:2]([C:3]([H:10])([H:11])[H:12])([C:4]([H:13])([H:14])[H:15])[C:5]#[N:6])([H:7])([H:8])[H:9]>>[C:1]([C:2]([C:3]([H:10])([H:11])[H:12])([C:4]([H:13])([H:14])[H:15])[N+:6]#[C-:5])([H:7])([H:8])[H:9]"
C        1.28205474      -0.70401468      -0.25291642
C        0.01237791      -0.00488831       0.18916704
C       -0.01559552       1.48089148      -0.10717242
C       -1.21389635      -0.69435306      -0.39594939
C        0.40237829       0.10413629       2.01286912
N       -0.61206172      -0.49656269       1.98830336
H        2.17226441      -0.19105709       0.10413603
H        1.30292665      -1.73477815       0.09892036
H        1.29162235      -0.71895065      -1.34776220
H        0.88300053       1.98057962       0.24752559
H       -0.88653426       1.95267902       0.34602633
H       -0.08994564       1.60344767      -1.19273779
H       -1.23587785      -1.75546972      -0.15715741
H       -1.15313336      -0.58187864      -1.48327661
H       -2.13958017      -0.23978113      -0.04997559
15
Frame=1 idx=005954 GeodesicLength=0.02664127056843358 rxn_smarts="[C:1]([C:2]([C:3]([H:10])([H:11])[H:12])([C:4]([H:13])([H:14])[H:15])[C:5]#[N:6])([H:7])([H:8])[H:9]>>[C:1]([C:2]([C:3]([H:10])([H:11])[H:12])([C:4]([H:13])([H:14])[H:15])[N+:6]#[C-:5])([H:7])([H:8])[H:9]"
C        1.28052694      -0.70348056      -0.25371391
C        0.01057033      -0.00649501       0.19612056
C       -0.01596368       1.47931924      -0.10790985
C       -1.21431154      -0.69478020      -0.39631492
C        0.40409822       0.10355381       2.02344238
N       -0.60915253      -0.49357573       1.99456387
H        2.17227290      -0.19244304       0.10273281
H        1.30226649      -1.73608579       0.09284814
H        1.29221770      -0.71218454      -1.34841714
H        0.88176315       1.98121084       0.24636141
H       -0.88821669       1.95325930       0.34065442
H       -0.08425735       1.60088339      -1.19378979
H       -1.23670105      -1.75658336      -0.15986057
H       -1.15402376      -0.58273097      -1.48351929
H       -2.14108911      -0.23986740      -0.05319812
15
Frame=2 idx=005954 GeodesicLength=0.05327164095363422 rxn_smarts="[C:1]([C:2]([C:3]([H:10])([H:11])[H:12])([C:4]([H:13])([H:14])[H:15])[C:5]#[N:6])([H:7])([H:8])[H:9]>>[C:1]([C:2]([C:3]([H:10])([H:11])[H:12])([C:4]([H:13])([H:14])[H:15])[N+:6]#[C-:5])([H:7])([H:8])[H:9]"
C        1.27897859      -0.70293880      -0.25450919
C        0.00876332      -0.00810226       0.20307008
C       -0.01633618       1.47772575      -0.10864779
C       -1.21470625      -0.69519508      -0.39668926
C        0.40584775       0.10296923       2.03404608
N       -0.60621853      -0.49055806       2.00084644
H        2.17226687      -0.19383348       0.10131839
H        1.30157821      -1.73735989       0.08676535
H        1.29280647      -0.70545526      -1.34903119
H        0.88051238       1.98183291       0.24518836
H       -0.88988849       1.95380181       0.33526789
H       -0.07860008       1.59832830      -1.19480377
H       -1.23751111      -1.75768472      -0.16259732
H       -1.15491475      -0.58358277      -1.48377456
H       -2.14257821      -0.23994767      -0.05644951
15
Frame=3 idx=005954 GeodesicLength=0.07988759979249796 rxn_smarts="[C:1]([C:2]([C:3]([H:10])([H:11])[H:12])([C:4]([H:13])([H:14])[H:15])[C:5]#[N:6])([H:7])([H:8])[H:9]>>[C:1]([C:2]([C:3]([H:10])([H:11])[H:12])([C:4]([H:13])([H:14])[H:15])[N+:6]#[C-:5])([H:7])([H:8])[H:9]"
C        1.27741044      -0.70238980      -0.25530191
C        0.00695691      -0.00970986       0.21001336
C       -0.01671298       1.47611184      -0.10938597
C       -1.21508055      -0.69559751      -0.39707411
C        0.40762558       0.10238200       2.04467878
N       -0.60326027      -0.48751044       2.00714837
H        2.17224627      -0.19522651       0.09989157
H        1.30086414      -1.73859882       0.08067852
H        1.29338830      -0.69877021      -1.34960464
H        0.87924969       1.98244520       0.24400490
H       -0.89154696       1.95430715       0.32987260
H       -0.07297990       1.59578544      -1.19577941
H       -1.23830763      -1.75877327      -0.16536841
H       -1.15580616      -0.58443322      -1.48404399
H       -2.14404688      -0.24002197      -0.05972966
15
Frame=4 idx=005954 GeodesicLength=0.10648562542377275 rxn_smarts="[C:1]([C:2]([C:3]([H:10])([H:11])[H:12])([C:4]([H:13])([H:14])[H:15])[C:5]#[N:6])([H:7])([H:8])[H:9]>>[C:1]([C:2]([C:3]([H:10])([H:11])[H:12])([C:4]([H:13])([H:14])[H:15])[N+:6]#[C-:5])([H:7])([H:8])[H:9]"
C        1.27582326      -0.70183394      -0.25609171
C        0.00515109      -0.01131761       0.21694822
C       -0.01709402       1.47447836      -0.11012417
C       -1.21543455      -0.69598732      -0.39747111
C        0.40943030       0.10179150       2.05533905
N       -0.60027839      -0.48443376       2.01346698
H        2.17221107      -0.19662009       0.09845110
H        1.30012670      -1.73980108       0.07459419
H        1.29396282      -0.69213657      -1.35013795
H        0.87797652       1.98304711       0.24280956
H       -0.89318951       1.95477601       0.32447435
H       -0.06740260       1.59325776      -1.19671661
H       -1.23909025      -1.75984848      -0.16817442
H       -1.15669787      -0.58528157      -1.48432908
H       -2.14549456      -0.24009032      -0.06303841
15
Frame=5 idx=005954 GeodesicLength=0.13306214460795135 rxn_smarts="[C:1]([C:2]([C:3]([H:10])([H:11])[H:12])([C:4]([H:13])([H:14])[H:15])[C:5]#[N:6])([H:7])([H:8])[H:9]>>[C:1]([C:2]([C:3]([H:10])([H:11])[H:12])([C:4]([H:13])([H:14])[H:15])[N+:6]#[C-:5])([H:7])([H:8])[H:9]"
C        1.27421784      -0.70127158      -0.25687828
C        0.00334582      -0.01292533       0.22387248
C       -0.01747924       1.47282615      -0.11086221
C       -1.21576842      -0.69636432      -0.39788184
C        0.41126030       0.10119718       2.06602548
N       -0.59727353      -0.48132911       2.01979951
H        2.17216121      -0.19801217       0.09699574
H        1.29936840      -1.74096518       0.06851910
H        1.29452964      -0.68556136      -1.35063175
H        0.87669442       1.98363801       0.24160081
H       -0.89481349       1.95520921       0.31907909
H       -0.06187382       1.59074814      -1.19761544
H       -1.23985863      -1.76090985      -0.17101595
H       -1.15758983      -0.58612702      -1.48463130
H       -2.14692070      -0.24015275      -0.06637545
15
Frame=6 idx=005954 GeodesicLength=0.15961360083257065 rxn_smarts="[C:1]([C:2]([C:3]([H:10])([H:11])[H:12])([C:4]([H:13])([H:14])[H:15])[C:5]#[N:6])([H:7])([H:8])[H:9]>>[C:1]([C:2]([C:3]([H:10])([H:11])[H:12])([C:4]([H:13])([H:14])[H:15])[N+:6]#[C-:5])([H:7])([H:8])[H:9]"
C        1.27259498      -0.70070308      -0.25766132
C        0.00154108      -0.01453285       0.23078402
C       -0.01786852       1.47115609      -0.11159995
C       -1.21608231      -0.69672838      -0.39830783
C        0.41311385       0.10059839       2.07673669
N       -0.59424644      -0.47819770       2.02614324
H        2.17209666      -0.19940065       0.09552437
H        1.29859180      -1.74208980       0.06245984
H        1.29508840      -0.67905125      -1.35108684
H        0.87540495       1.98421726       0.24037711
H       -0.89641631       1.95560766       0.31369265
H       -0.05639894       1.58825926      -1.19847618
H       -1.24061238      -1.76195688      -0.17389348
H       -1.15848204      -0.58696877      -1.48495203
H       -2.14832479      -0.24020932      -0.06974029
15
Frame=7 idx=005954 GeodesicLength=0.18613633864451154 rxn_smarts="[C:1]([C:2]([C:3]([H:10])([H:11])[H:12])([C:4]([H:13])([H:14])[H:15])[C:5]#[N:6])([H:7])([H:8])[H:9]>>[C:1]([C:2]([C:3]([H:10])([H:11])[H:12])([C:4]([H:13])([H:14])[H:15])[N+:6]#[C-:5])([H:7])([H:8])[H:9]"
C        1.27095552      -0.70012875      -0.25844060
C       -0.00026318      -0.01613997       0.23768075
C       -0.01826172       1.46946905      -0.11233730
C       -1.21637641      -0.69707933      -0.39875054
C        0.41498900       0.09999457       2.08747133
N       -0.59119800      -0.47504090       2.03249542
H        2.17201739      -0.20078337       0.09403581
H        1.29779953      -1.74317369       0.05642312
H        1.29563876      -0.67261271      -1.35150422
H        0.87410973       1.98478420       0.23913689
H       -0.89799538       1.95597240       0.30832093
H       -0.05098324       1.58579371      -1.19929925
H       -1.24135111      -1.76298911      -0.17680743
H       -1.15937457      -0.58780601      -1.48529262
H       -2.14970632      -0.24026008      -0.07313231
15
Frame=8 idx=005954 GeodesicLength=0.21262855030725264 rxn_smarts="[C:1]([C:2]([C:3]([H:10])([H:11])[H:12])([C:4]([H:13])([H:14])[H:15])[C:5]#[N:6])([H:7])([H:8])[H:9]>>[C:1]([C:2]([C:3]([H:10])([H:11])[H:12])([C:4]([H:13])([H:14])[H:15])[N+:6]#[C-:5])([H:7])([H:8])[H:9]"
C        1.26930026      -0.69954917      -0.25921597
C       -0.00206729      -0.01774664       0.24456017
C       -0.01865888       1.46776605      -0.11307444
C       -1.21665123      -0.69741724      -0.39921181
C        0.41688401       0.09938500       2.09822814
N       -0.58812821      -0.47185990       2.03885286
H        2.17192307      -0.20215817       0.09252903
H        1.29699490      -1.74421576       0.05041691
H        1.29617995      -0.66625167      -1.35188468
H        0.87281043       1.98533791       0.23787847
H       -0.89954810       1.95630508       0.30297071
H       -0.04563142       1.58335400      -1.20008536
H       -1.24207469      -1.76400624      -0.17975858
H       -1.16026775      -0.58863783      -1.48565460
H       -2.15106504      -0.24030540      -0.07655084
15
Frame=9 idx=005954 GeodesicLength=0.23909088110362367 rxn_smarts="[C:1]([C:2]([C:3]([H:10])([H:11])[H:12])([C:4]([H:13])([H:14])[H:15])[C:5]#[N:6])([H:7])([H:8])[H:9]>>[C:1]([C:2]([C:3]([H:10])([H:11])[H:12])([C:4]([H:13])([H:14])[H:15])[N+:6]#[C-:5])([H:7])([H:8])[H:9]"
C        1.26762879      -0.69896402      -0.25998719
C       -0.00387193      -0.01935287       0.25142372
C       -0.01905934       1.46604690      -0.11381097
C       -1.21690719      -0.69774292      -0.39969018
C        0.41879941       0.09876934       2.10900823
N       -0.58503763      -0.46865355       2.04521653
H        2.17181362      -0.20352680       0.09100654
H        1.29617472      -1.74521778       0.04443664
H        1.29671396      -0.65996349      -1.35222980
H        0.87150746       1.98587869       0.23660204
H       -0.90107659       1.95660525       0.29763644
H       -0.04034093       1.58093989      -1.20083534
H       -1.24278085      -1.76500934      -0.18274653
H       -1.16116217      -0.58946290      -1.48603655
H       -2.15240133      -0.24034641      -0.07999357
15
Frame=10 idx=005954 GeodesicLength=0.2655387849437279 rxn_smarts="[C:1]([C:2]([C:3]([H:10])([H:11])[H:12])([C:4]([H:13])([H:14])[H:15])[C:5]#[N:6])([H:7])([H:8])[H:9]>>[C:1]([C:2]([C:3]([H:10])([H:11])[H:12])([C:4]([H:13])([H:14])[H:15])[N+:6]#[C-:5])([H:7])([H:8])[H:9]"
C        1.26594350      -0.69837649      -0.26075442
C       -0.00567655      -0.02095991       0.25827270
C       -0.01946425       1.46431477      -0.11454545
C       -1.21714654      -0.69805846      -0.40018636
C        0.42074019       0.09815138       2.11981720
N       -0.58192416      -0.46541423       2.05159049
H        2.17169371      -0.20489619       0.08947360
H        1.29533781      -1.74618798       0.03847147
H        1.29724449      -0.65374188      -1.35254070
H        0.87020016       1.98641030       0.23531297
H       -0.90258605       1.95687759       0.29231608
H       -0.03511235       1.57855236      -1.20155176
H       -1.24347032      -1.76600215      -0.18577025
H       -1.16206003      -0.59028568      -1.48644114
H       -2.15371962      -0.24038343      -0.08346442
15
Frame=11 idx=005954 GeodesicLength=0.2919537317319853 rxn_smarts="[C:1]([C:2]([C:3]([H:10])([H:11])[H:12])([C:4]([H:13])([H:14])[H:15])[C:5]#[N:6])([H:7])([H:8])[H:9]>>[C:1]([C:2]([C:3]([H:10])([H:11])[H:12])([C:4]([H:13])([H:14])[H:15])[N+:6]#[C-:5])([H:7])([H:8])[H:9]"
C        1.26423883      -0.69777964      -0.26151749
C       -0.00748455      -0.02256583       0.26510789
C       -0.01987202       1.46256224      -0.11528042
C       -1.21736621      -0.69836276      -0.40069430
C        0.42270155       0.09752319       2.13064668
N       -0.57879096      -0.46214318       2.05797150
H        2.17155509      -0.20626262       0.08792738
H        1.29447668      -1.74711740       0.03251942
H        1.29776993      -0.64757562      -1.35281799
H        0.86888597       1.98692524       0.23400779
H       -0.90407702       1.95710866       0.28699746
H       -0.02992612       1.57618395      -1.20223113
H       -1.24413949      -1.76697910      -0.18882429
H       -1.16295732      -0.59109679      -1.48685734
H       -2.15501435      -0.24042035      -0.08695516
15
Frame=12 idx=005954 GeodesicLength=0.3183333663745336 rxn_smarts="[C:1]([C:2]([C:3]([H:10])([H:11])[H:12])([C:4]([H:13])([H:14])[H:15])[C:5]#[N:6])([H:7])([H:8])[H:9]>>[C:1]([C:2]([C:3]([H:10])([H:11])[H:12])([C:4]([H:13])([H:14])[H:15])[N+:6]#[C-:5])([H:7])([H:8])[H:9]"
C        1.26251515      -0.69717677      -0.26227709
C       -0.00929347      -0.02417460       0.27192763
C       -0.02028229       1.46079037      -0.11601449
C       -1.21756610      -0.69865410      -0.40121741
C        0.42468223       0.09688825       2.14149896
N       -0.57563760      -0.45884364       2.06435581
H        2.17139669      -0.20762224       0.08636379
H        1.29359456      -1.74800522       0.02658907
H        1.29828881      -0.64147094      -1.35305920
H        0.86756433       1.98742488       0.23268554
H       -0.90554216       1.95730414       0.28169539
H       -0.02479323       1.57383771      -1.20287806
H       -1.24479215      -1.76793918      -0.19191114
H       -1.16385152      -0.59190487      -1.48729040
H       -2.15628326      -0.24045378      -0.09046841
15
Frame=13 idx=005954 GeodesicLength=0.34470467427895946 rxn_smarts="[C:1]([C:2]([C:3]([H:10])([H:11])[H:12])([C:4]([H:13])([H:14])[H:15])[C:5]#[N:6])([H:7])([H:8])[H:9]>>[C:1]([C:2]([C:3]([H:10])([H:11])[H:12])([C:4]([H:13])([H:14])[H:15])[N+:6]#[C-:5])([H:7])([H:8])[H:9]"
C        1.26077677      -0.69657219      -0.26303233
C       -0.01110478      -0.02578373       0.27873386
C       -0.02069950       1.45900516      -0.11674728
C       -1.21775119      -0.69893366      -0.40175925
C        0.42669113       0.09624745       2.15238153
N       -0.57245595      -0.45551322       2.07075063
H        2.17122524      -0.20898099       0.08479036
H        1.29270013      -1.74886202       0.02067931
H        1.29880437      -0.63543106      -1.35327013
H        0.86623451       1.98791705       0.23135105
H       -0.90699072       1.95747241       0.27640754
H       -0.01971391       1.57151452      -1.20349341
H       -1.24543094      -1.76888656      -0.19503512
H       -1.16475019      -0.59271348      -1.48774717
H       -2.15753497      -0.24047968      -0.09400959
15
Frame=14 idx=005954 GeodesicLength=0.3710598527650671 rxn_smarts="[C:1]([C:2]([C:3]([H:10])([H:11])[H:12])([C:4]([H:13])([H:14])[H:15])[C:5]#[N:6])([H:7])([H:8])[H:9]>>[C:1]([C:2]([C:3]([H:10])([H:11])[H:12])([C:4]([H:13])([H:14])[H:15])[N+:6]#[C-:5])([H:7])([H:8])[H:9]"
C        1.25902138      -0.69596297      -0.26378376
C       -0.01291893      -0.02739495       0.28552724
C       -0.02112234       1.45720238      -0.11747927
C       -1.21791965      -0.69920208      -0.40231625
C        0.42872817       0.09559816       2.16329207
N       -0.56924813      -0.45214777       2.07715467
H        2.17103744      -0.21033789       0.08320575
H        1.29178561      -1.74968484       0.01478301
H        1.29931632      -0.62944491      -1.35344962
H        0.86489346       1.98839783       0.23000613
H       -0.90842221       1.95760737       0.27112833
H       -0.01467889       1.56921150      -1.20407729
H       -1.24605663      -1.76981949      -0.19819006
H       -1.16564906      -0.59352246      -1.48822216
H       -2.15876653      -0.24049989      -0.09757880
15
Frame=15 idx=005954 GeodesicLength=0.3974014045317181 rxn_smarts="[C:1]([C:2]([C:3]([H:10])([H:11])[H:12])([C:4]([H:13])([H:14])[H:15])[C:5]#[N:6])([H:7])([H:8])[H:9]>>[C:1]([C:2]([C:3]([H:10])([H:11])[H:12])([C:4]([H:13])([H:14])[H:15])[N+:6]#[C-:5])([H:7])([H:8])[H:9]"
C        1.25724890      -0.69534840      -0.26453178
C       -0.01473653      -0.02900807       0.29230819
C       -0.02155117       1.45538260      -0.11821056
C       -1.21807210      -0.69945999      -0.40288721
C        0.43079503       0.09494007       2.17423122
N       -0.56601346      -0.44874420       2.08356827
H        2.17083413      -0.21169692       0.08161356
H        1.29084789      -1.75047465       0.00889373
H        1.29982764      -0.62350657      -1.35359832
H        0.86354078       1.98886721       0.22865177
H       -0.90983810       1.95770897       0.26585739
H       -0.00968656       1.56692874      -1.20463058
H       -1.24666956      -1.77073815      -0.20137262
H       -1.16654753      -0.59433648      -1.48871451
H       -2.15997937      -0.24051416      -0.10117854
15
Frame=16 idx=005954 GeodesicLength=0.42373237457449336 rxn_smarts="[C:1]([C:2]([C:3]([H:10])([H:11])[H:12])([C:4]([H:13])([H:14])[H:15])[C:5]#[N:6])([H:7])([H:8])[H:9]>>[C:1]([C:2]([C:3]([H:10])([H:11])[H:12])([C:4]([H:13])([H:14])[H:15])[N+:6]#[C-:5])([H:7])([H:8])[H:9]"
C        1.25545905      -0.69472833      -0.26527636
C       -0.01655795      -0.03062369       0.29907793
C       -0.02198553       1.45354534      -0.11894069
C       -1.21820863      -0.69970799      -0.40347103
C        0.43289396       0.09427238       2.18520011
N       -0.56275118      -0.44529872       2.08999295
H        2.17061500      -0.21305879       0.08001451
H        1.28988504      -1.75123312       0.00300491
H        1.30033797      -0.61761136      -1.35371659
H        0.86217434       1.98932587       0.22729282
H       -0.91124215       1.95777546       0.26058676
H       -0.00472974       1.56466566      -1.20515340
H       -1.24727145      -1.77164286      -0.20458126
H       -1.16744510      -0.59515605      -1.48922302
H       -2.16117364      -0.24052381      -0.10480763
