17
Frame=0 idx=008046 GeodesicLength=0.0 rxn_smarts="[C:1]([C:2]12[C:3]([H:11])([H:12])[C:4]([O:5][H:13])([C:6]1([H:14])[H:15])[C:7]2([H:16])[H:17])([H:8])([H:9])[H:10]>>[C:1]([C:2]1([C:3]([C:4][O:5][H:13])([H:11])[H:12])[C:6]([H:14])([H:15])[C:7]1([H:16])[H:17])([H:8])([H:9])[H:10]"
C       -2.04180861       0.26522295      -0.15382550
C       -0.55246983       0.09213867       0.00052766
C        0.40365224       0.22174142      -1.18983944
C        1.61618203       0.26801067      -0.29498723
O        2.57376949      -0.63531545      -0.51748641
C        0.09640838      -1.09327301       0.62043480
C        0.26019492       0.76889168       1.06897319
H       -2.43830497      -0.45187926      -0.87684071
H       -2.54522014       0.09584043       0.80091464
H       -2.29314356       1.27227779      -0.49587109
H        0.31505339       1.15464439      -1.75478947
H        0.32639944      -0.63413779      -1.87395154
H        3.35831463      -0.37580069      -0.02717838
H       -0.23409516      -1.44271973       1.59269254
H        0.59748905      -1.83430289       0.00569728
H       -0.06383964       0.54102247       2.08574477
H        0.62141842       1.78763843       1.00978484
17
Frame=1 idx=008046 GeodesicLength=0.045613292600782236 rxn_smarts="[C:1]([C:2]12[C:3]([H:11])([H:12])[C:4]([O:5][H:13])([C:6]1([H:14])[H:15])[C:7]2([H:16])[H:17])([H:8])([H:9])[H:10]>>[C:1]([C:2]1([C:3]([C:4][O:5][H:13])([H:11])[H:12])[C:6]([H:14])([H:15])[C:7]1([H:16])[H:17])([H:8])([H:9])[H:10]"
C       -2.04118853       0.26182128      -0.15673474
C       -0.55241838       0.09213566       0.00071648
C        0.40531784       0.22366399      -1.18753410
C        1.61488822       0.25219399      -0.28813726
O        2.58646028      -0.62621499      -0.54795937
C        0.09915266      -1.08834241       0.63114792
C        0.25770759       0.76575069       1.07389432
H       -2.43487517      -0.45677313      -0.87981129
H       -2.54634871       0.09287144       0.79710286
H       -2.29284575       1.26809284      -0.50086093
H        0.32538587       1.16370427      -1.74190719
H        0.32363741      -0.62636580      -1.87788617
H        3.36584128      -0.37834733      -0.04353217
H       -0.24465413      -1.44139107       1.59770302
H        0.58929644      -1.84127434       0.02213580
H       -0.07895893       0.55563410       2.09019959
H        0.62360201       1.78284081       1.01146322
17
Frame=2 idx=008046 GeodesicLength=0.09085430643431182 rxn_smarts="[C:1]([C:2]12[C:3]([H:11])([H:12])[C:4]([O:5][H:13])([C:6]1([H:14])[H:15])[C:7]2([H:16])[H:17])([H:8])([H:9])[H:10]>>[C:1]([C:2]1([C:3]([C:4][O:5][H:13])([H:11])[H:12])[C:6]([H:14])([H:15])[C:7]1([H:16])[H:17])([H:8])([H:9])[H:10]"
C       -2.04052299       0.25853297      -0.15955303
C       -0.55235148       0.09194597       0.00086117
C        0.40689321       0.22536276      -1.18536028
C        1.61345072       0.23586984      -0.28170323
O        2.59898166      -0.61539674      -0.57795723
C        0.10161867      -1.08372285       0.64171635
C        0.25545190       0.76234132       1.07864963
H       -2.43159153      -0.46144592      -0.88268074
H       -2.54737082       0.09009714       0.79342525
H       -2.29234332       1.26407473      -0.50570754
H        0.33565757       1.17236710      -1.72903126
H        0.32086437      -0.61869295      -1.88197940
H        3.37291423      -0.38055224      -0.05905816
H       -0.25522882      -1.44020563       1.60251213
H        0.58085619      -1.84841132       0.03873412
H       -0.09351617       0.57017401       2.09417971
H        0.62623660       1.77766180       1.01295250
17
Frame=3 idx=008046 GeodesicLength=0.1357391022515339 rxn_smarts="[C:1]([C:2]12[C:3]([H:11])([H:12])[C:4]([O:5][H:13])([C:6]1([H:14])[H:15])[C:7]2([H:16])[H:17])([H:8])([H:9])[H:10]>>[C:1]([C:2]1([C:3]([C:4][O:5][H:13])([H:11])[H:12])[C:6]([H:14])([H:15])[C:7]1([H:16])[H:17])([H:8])([H:9])[H:10]"
C       -2.03981756       0.25535976      -0.16227533
C       -0.55227093       0.09156754       0.00095566
C        0.40837244       0.22682957      -1.18332845
C        1.61185956       0.21902467      -0.27570417
O        2.61137111      -0.60274218      -0.60743406
C        0.10381041      -1.07941797       0.65213265
C        0.25343556       0.75866185       1.08322724
H       -2.42846629      -0.46589422      -0.88544403
H       -2.54828509       0.08752011       0.78989031
H       -2.29164382       1.26022633      -0.51040039
H        0.34585290       1.18061609      -1.71618238
H        0.31808401      -0.61113282      -1.88623302
H        3.37952931      -0.38248152      -0.07371457
H       -0.26580296      -1.43915185       1.60713301
H        0.57212566      -1.85572699       0.05546138
H       -0.10747957       0.58464536       2.09768274
H        0.62932528       1.77209627       1.01423341
17
Frame=4 idx=008046 GeodesicLength=0.18027617899707177 rxn_smarts="[C:1]([C:2]12[C:3]([H:11])([H:12])[C:4]([O:5][H:13])([C:6]1([H:14])[H:15])[C:7]2([H:16])[H:17])([H:8])([H:9])[H:10]>>[C:1]([C:2]1([C:3]([C:4][O:5][H:13])([H:11])[H:12])[C:6]([H:14])([H:15])[C:7]1([H:16])[H:17])([H:8])([H:9])[H:10]"
C       -2.03907652       0.25230168      -0.16489634
C       -0.55217791       0.09099833       0.00099303
C        0.40974888       0.22805680      -1.18145051
C        1.61010439       0.20164604      -0.27016178
O        2.62365979      -0.58811121      -0.63632878
C        0.10573301      -1.07543096       0.66238780
C        0.25166861       0.75471179       1.08761329
H       -2.42551087      -0.47011635      -0.88809653
H       -2.54908754       0.08513935       0.78650689
H       -2.29075414       1.25654914      -0.51492728
H        0.35595369       1.18843576      -1.70338324
H        0.31530002      -0.60370066      -1.89064921
H        3.38567491      -0.38422173      -0.08746080
H       -0.27635880      -1.43821772       1.61157830
H        0.56306174      -1.86323289       0.07228651
H       -0.12081250       0.59905174       2.10070505
H        0.63287323       1.76614090       1.01528358
17
Frame=5 idx=008046 GeodesicLength=0.2244859187514292 rxn_smarts="[C:1]([C:2]12[C:3]([H:11])([H:12])[C:4]([O:5][H:13])([C:6]1([H:14])[H:15])[C:7]2([H:16])[H:17])([H:8])([H:9])[H:10]>>[C:1]([C:2]1([C:3]([C:4][O:5][H:13])([H:11])[H:12])[C:6]([H:14])([H:15])[C:7]1([H:16])[H:17])([H:8])([H:9])[H:10]"
C       -2.03832153       0.24935700      -0.16740918
C       -0.55207888       0.09023611       0.00097012
C        0.41102946       0.22903352      -1.17974461
C        1.60819399       0.18371790      -0.26509718
O        2.63590194      -0.57135691      -0.66457937
C        0.10738263      -1.07177006       0.67247848
C        0.25015999       0.75049906       1.09180945
H       -2.42275337      -0.47411946      -0.89064362
H       -2.54980553       0.08295135       0.78329236
H       -2.28969479       1.25304870      -0.51927150
H        0.36596203       1.19581185      -1.69066494
H        0.31252889      -0.59642429      -1.89524650
H        3.39138612      -0.38585807      -0.10030664
H       -0.28690645      -1.43739406       1.61587220
H        0.55361683      -1.87095252       0.08917653
H       -0.13349486       0.61341285       2.10326636
H        0.63689354       1.75980704       1.01609802
17
Frame=6 idx=008046 GeodesicLength=0.26834735623271905 rxn_smarts="[C:1]([C:2]12[C:3]([H:11])([H:12])[C:4]([O:5][H:13])([C:6]1([H:14])[H:15])[C:7]2([H:16])[H:17])([H:8])([H:9])[H:10]>>[C:1]([C:2]1([C:3]([C:4][O:5][H:13])([H:11])[H:12])[C:6]([H:14])([H:15])[C:7]1([H:16])[H:17])([H:8])([H:9])[H:10]"
C       -2.03753649       0.24653745      -0.16979946
C       -0.55196733       0.08927572       0.00086523
C        0.41218100       0.22974687      -1.17823592
C        1.60608690       0.16522602      -0.26056539
O        2.64810488      -0.55224256      -0.69204754
C        0.10879077      -1.06844123       0.68237180
C        0.24892908       0.74600815       1.09576396
H       -2.42019756      -0.47788510      -0.89304341
H       -2.55038470       0.08098091       0.78026572
H       -2.28846077       1.24973593      -0.52341559
H        0.37581091       1.20272475      -1.67806340
H        0.30976297      -0.58932428      -1.90001892
H        3.39654171      -0.38754049      -0.11209801
H       -0.29738185      -1.43668070       1.61999602
H        0.54378579      -1.87888785       0.10609736
H       -0.14545562       0.62769812       2.10531822
H        0.64139030       1.75306829       1.01660932
17
Frame=7 idx=008046 GeodesicLength=0.3119387881651774 rxn_smarts="[C:1]([C:2]12[C:3]([H:11])([H:12])[C:4]([O:5][H:13])([C:6]1([H:14])[H:15])[C:7]2([H:16])[H:17])([H:8])([H:9])[H:10]>>[C:1]([C:2]1([C:3]([C:4][O:5][H:13])([H:11])[H:12])[C:6]([H:14])([H:15])[C:7]1([H:16])[H:17])([H:8])([H:9])[H:10]"
C       -2.03673207       0.24385504      -0.17211800
C       -0.55185512       0.08811208       0.00070344
C        0.41322005       0.23016975      -1.17687558
C        1.60378873       0.14606386      -0.25647543
O        2.66024590      -0.53074883      -0.71859663
C        0.10991655      -1.06545729       0.69213703
C        0.24796721       0.74120795       1.09953567
H       -2.41782199      -0.48138365      -0.89539047
H       -2.55086696       0.07923135       0.77735854
H       -2.28705660       1.24661976      -0.52741921
H        0.38553897       1.20913965      -1.66553981
H        0.30701176      -0.58241299      -1.90493874
H        3.40139297      -0.38908805      -0.12332552
H       -0.30786180      -1.43604190       1.62403752
H        0.53346620      -1.88707188       0.12310972
H       -0.15673322       0.64194004       2.10691873
H        0.64637944       1.74586513       1.01687874
17
Frame=8 idx=008046 GeodesicLength=0.35516067474593793 rxn_smarts="[C:1]([C:2]12[C:3]([H:11])([H:12])[C:4]([O:5][H:13])([C:6]1([H:14])[H:15])[C:7]2([H:16])[H:17])([H:8])([H:9])[H:10]>>[C:1]([C:2]1([C:3]([C:4][O:5][H:13])([H:11])[H:12])[C:6]([H:14])([H:15])[C:7]1([H:16])[H:17])([H:8])([H:9])[H:10]"
C       -2.03583853       0.24132183      -0.17429458
C       -0.55172192       0.08671260       0.00044833
C        0.41414295       0.23025299      -1.17571568
C        1.60123221       0.12621083      -0.25296494
O        2.67226859      -0.50651620      -0.74397017
C        0.11070435      -1.06285982       0.70169894
C        0.24731224       0.73605450       1.10300180
H       -2.41562818      -0.48458378      -0.89754937
H       -2.55115806       0.07772831       0.77465017
H       -2.28533380       1.24372476      -0.53119104
H        0.39516866       1.21499977      -1.65316625
H        0.30429633      -0.57576781      -1.90997915
H        3.40567408      -0.39042907      -0.13376712
H       -0.31839209      -1.43551835       1.62793756
H        0.52256192      -1.89552715       0.14016517
H       -0.16722581       0.65604938       2.10794721
H        0.65193706       1.73814720       1.01674912
17
Frame=9 idx=008046 GeodesicLength=0.39813487026136074 rxn_smarts="[C:1]([C:2]12[C:3]([H:11])([H:12])[C:4]([O:5][H:13])([C:6]1([H:14])[H:15])[C:7]2([H:16])[H:17])([H:8])([H:9])[H:10]>>[C:1]([C:2]1([C:3]([C:4][O:5][H:13])([H:11])[H:12])[C:6]([H:14])([H:15])[C:7]1([H:16])[H:17])([H:8])([H:9])[H:10]"
C       -2.03502381       0.23898199      -0.17638495
C       -0.55162148       0.08507726       0.00011453
C        0.41495455       0.22993287      -1.17477427
C        1.59851974       0.10552872      -0.24997800
O        2.68434747      -0.47951103      -0.76802756
C        0.11117255      -1.06068779       0.71109696
C        0.24698803       0.73056500       1.10628485
H       -2.41379073      -0.48747545      -0.89966597
H       -2.55146094       0.07655578       0.77211239
H       -2.28350328       1.24111731      -0.53478770
H        0.40467763       1.22026186      -1.64094630
H        0.30161692      -0.56949091      -1.91524732
H        3.40984779      -0.39146429      -0.14376493
H       -0.32899147      -1.43508784       1.63177879
H        0.51107745      -1.90435878       0.15723973
H       -0.17693622       0.67013077       2.10856825
H        0.65812579       1.72992452       1.01638149
17
Frame=10 idx=008046 GeodesicLength=0.44089511020614663 rxn_smarts="[C:1]([C:2]12[C:3]([H:11])([H:12])[C:4]([O:5][H:13])([C:6]1([H:14])[H:15])[C:7]2([H:16])[H:17])([H:8])([H:9])[H:10]>>[C:1]([C:2]1([C:3]([C:4][O:5][H:13])([H:11])[H:12])[C:6]([H:14])([H:15])[C:7]1([H:16])[H:17])([H:8])([H:9])[H:10]"
C       -2.03416371       0.23679016      -0.17837603
C       -0.55151329       0.08319613      -0.00028998
C        0.41565847       0.22923558      -1.17401834
C        1.59557492       0.08398481      -0.24754941
O        2.69628712      -0.44933237      -0.79059664
C        0.11129893      -1.05891906       0.72035455
C        0.24701073       0.72469683       1.10930512
H       -2.41215009      -0.49007922      -0.90167575
H       -2.55164509       0.07563981       0.76972988
H       -2.28141485       1.23872126      -0.53822024
H        0.41407811       1.22493706      -1.62885717
H        0.29898189      -0.56351243      -1.92065946
H        3.41368646      -0.39242439      -0.15342196
H       -0.33970719      -1.43471207       1.63557972
H        0.49889225      -1.91351164       0.17439121
H       -0.18587108       0.68418296       2.10865703
H        0.66499641       1.72110658       1.01564749
17
Frame=11 idx=008046 GeodesicLength=0.48337942732033495 rxn_smarts="[C:1]([C:2]12[C:3]([H:11])([H:12])[C:4]([O:5][H:13])([C:6]1([H:14])[H:15])[C:7]2([H:16])[H:17])([H:8])([H:9])[H:10]>>[C:1]([C:2]1([C:3]([C:4][O:5][H:13])([H:11])[H:12])[C:6]([H:14])([H:15])[C:7]1([H:16])[H:17])([H:8])([H:9])[H:10]"
C       -2.03320476       0.23486645      -0.18022576
C       -0.55139438       0.08100849      -0.00082360
C        0.41620444       0.22799374      -1.17351749
C        1.59229187       0.06136393      -0.24580519
O        2.70797099      -0.41583154      -0.81108086
C        0.11098632      -1.05768188       0.72938538
C        0.24746028       0.71830953       1.11194157
H       -2.41078472      -0.49220597      -0.90349758
H       -2.55159761       0.07514764       0.76755631
H       -2.27890752       1.23669954      -0.54140364
H        0.42335417       1.22884179      -1.61701358
H        0.29634684      -0.55803760      -1.92620882
H        3.41713615      -0.39243221      -0.16267682
H       -0.35058859      -1.43447407       1.63928445
H        0.48585032      -1.92311724       0.19157778
H       -0.19380840       0.69803535       2.10810993
H        0.67268460       1.71151404       1.01439792
17
Frame=12 idx=008046 GeodesicLength=0.5256620377599251 rxn_smarts="[C:1]([C:2]12[C:3]([H:11])([H:12])[C:4]([O:5][H:13])([C:6]1([H:14])[H:15])[C:7]2([H:16])[H:17])([H:8])([H:9])[H:10]>>[C:1]([C:2]1([C:3]([C:4][O:5][H:13])([H:11])[H:12])[C:6]([H:14])([H:15])[C:7]1([H:16])[H:17])([H:8])([H:9])[H:10]"
C       -2.03227525       0.23321622      -0.18195935
C       -0.55129708       0.07850881      -0.00147078
C        0.41662280       0.22615851      -1.17329920
C        1.58878323       0.03755978      -0.24475597
O        2.71941915      -0.37886311      -0.82924349
C        0.11023887      -1.05699916       0.73820913
C        0.24838966       0.71142422       1.11427412
H       -2.40982815      -0.49389796      -0.90522022
H       -2.55149380       0.07512772       0.76559486
H       -2.27612733       1.23506338      -0.54437160
H        0.43251882       1.23194538      -1.60542105
H        0.29372640      -0.55314875      -1.93199932
H        3.42053880      -0.39147279      -0.17181052
H       -0.36169929      -1.43433865       1.64294715
H        0.47190606      -1.93324369       0.20875054
H       -0.20072596       0.71180358       2.10704022
H        0.68130308       1.70115651       1.01273550
17
Frame=13 idx=008046 GeodesicLength=0.5678729145048992 rxn_smarts="[C:1]([C:2]12[C:3]([H:11])([H:12])[C:4]([O:5][H:13])([C:6]1([H:14])[H:15])[C:7]2([H:16])[H:17])([H:8])([H:9])[H:10]>>[C:1]([C:2]1([C:3]([C:4][O:5][H:13])([H:11])[H:12])[C:6]([H:14])([H:15])[C:7]1([H:16])[H:17])([H:8])([H:9])[H:10]"
C       -2.03133432       0.23191704      -0.18356391
C       -0.55121135       0.07564400      -0.00225372
C        0.41688902       0.22360161      -1.17341986
C        1.58499518       0.01229674      -0.24450683
O        2.73041540      -0.33825562      -0.84458690
C        0.10898015      -1.05696674       0.74682073
C        0.24990687       0.70388850       1.11623712
H       -2.40931572      -0.49501987      -0.90681270
H       -2.55127021       0.07569400       0.76387810
H       -2.27295302       1.23389757      -0.54712121
H        0.44159066       1.23410439      -1.59416441
H        0.29105059      -0.54894401      -1.93807414
H        3.42395342      -0.38875343      -0.18088490
H       -0.37314494      -1.43433254       1.64659498
H        0.45686040      -1.94398823       0.22592654
H       -0.20648291       0.72542119       2.10538150
H        0.69107080       1.68979539       1.01054961
17
Frame=14 idx=008046 GeodesicLength=0.6100720978433503 rxn_smarts="[C:1]([C:2]12[C:3]([H:11])([H:12])[C:4]([O:5][H:13])([C:6]1([H:14])[H:15])[C:7]2([H:16])[H:17])([H:8])([H:9])[H:10]>>[C:1]([C:2]1([C:3]([C:4][O:5][H:13])([H:11])[H:12])[C:6]([H:14])([H:15])[C:7]1([H:16])[H:17])([H:8])([H:9])[H:10]"
C       -2.03028380       0.23095797      -0.18496194
C       -0.55109145       0.07241809      -0.00325785
C        0.41690190       0.22034580      -1.17398324
C        1.58081175      -0.01434003      -0.24530611
O        2.74073170      -0.29319933      -0.85638691
C        0.10735751      -1.05756896       0.75506062
C        0.25207926       0.69571703       1.11759705
H       -2.40917779      -0.49557501      -0.90810472
H       -2.55068849       0.07683063       0.76249404
H       -2.26935346       1.23319628      -0.54953622
H        0.45029132       1.23533323      -1.58339416
H        0.28831629      -0.54544700      -1.94443778
H        3.42675434      -0.38520771      -0.18932363
H       -0.38460694      -1.43443590       1.65011276
H        0.44082599      -1.95529765       0.24296942
H       -0.21081099       0.73882417       2.10290808
H        0.70194286       1.67744837       1.00755059
17
Frame=15 idx=008046 GeodesicLength=0.6524633314892099 rxn_smarts="[C:1]([C:2]12[C:3]([H:11])([H:12])[C:4]([O:5][H:13])([C:6]1([H:14])[H:15])[C:7]2([H:16])[H:17])([H:8])([H:9])[H:10]>>[C:1]([C:2]1([C:3]([C:4][O:5][H:13])([H:11])[H:12])[C:6]([H:14])([H:15])[C:7]1([H:16])[H:17])([H:8])([H:9])[H:10]"
C       -2.02918204       0.23043771      -0.18615044
C       -0.55095575       0.06874602      -0.00448621
C        0.41669801       0.21615453      -1.17506482
C        1.57629743      -0.04274161      -0.24725967
O        2.75005217      -0.24386407      -0.86398792
C        0.10519228      -1.05895258       0.76292111
C        0.25509401       0.68674875       1.11837741
H       -2.40961956      -0.49543042      -0.90915558
H       -2.54985866       0.07872138       0.76148560
H       -2.26521518       1.23307950      -0.55160439
H        0.45879092       1.23538867      -1.57318916
H        0.28541865      -0.54290078      -1.95122958
H        3.42941495      -0.37923100      -0.19746039
H       -0.39639607      -1.43467725       1.65353305
H        0.42345459      -1.96735776       0.25983088
H       -0.21351548       0.75201181       2.09968213
H        0.71432973       1.66386710       1.00375798
17
Frame=16 idx=008046 GeodesicLength=0.6954183620947242 rxn_smarts="[C:1]([C:2]12[C:3]([H:11])([H:12])[C:4]([O:5][H:13])([C:6]1([H:14])[H:15])[C:7]2([H:16])[H:17])([H:8])([H:9])[H:10]>>[C:1]([C:2]1([C:3]([C:4][O:5][H:13])([H:11])[H:12])[C:6]([H:14])([H:15])[C:7]1([H:16])[H:17])([H:8])([H:9])[H:10]"
C       -2.02798909       0.23044978      -0.18705572
C       -0.55077769       0.06458618      -0.00603079
C        0.41619020       0.21090830      -1.17684771
C        1.57138603      -0.07312173      -0.25068966
O        2.75796316      -0.18994554      -0.86639572
C        0.10252783      -1.06121440       0.77026508
C        0.25913238       0.67685495       1.11837070
H       -2.41071992      -0.49444682      -0.90982989
H       -2.54862853       0.08149564       0.76098396
H       -2.26047977       1.23366396      -0.55323009
H        0.46694159       1.23414463      -1.56379392
H        0.28223867      -0.54142379      -1.95859819
H        3.43169153      -0.37032736      -0.20478374
H       -0.40836343      -1.43508796       1.65681049
H        0.40466954      -1.98026042       0.27639140
H       -0.21423822       0.76487451       2.09554317
H        0.72845575       1.64885007       0.99889063
