12
Frame=0 idx=000929 GeodesicLength=0.0 rxn_smarts="[O:1]([C@@:2]1([H:8])[C:3]([H:9])([H:10])[C@@:4]2([H:11])[O:5][C@@:6]12[H:12])[H:7]>>[O:1]([C@@:2]1([H:8])[C:3]([H:9])([H:10])[C@@:4]([C:6][H:12])([H:11])[O:5]1)[H:7]"
O        1.85490554      -0.55983744      -0.87114317
C        0.68181092      -0.80765812      -0.40168468
C        0.20605657      -0.30717448       0.93649932
C       -0.79989250       0.67088068       0.38832513
O       -0.21782099       1.05595587      -0.85608634
C       -1.47754419       0.08915853      -0.78541544
H        2.23927544       0.22034388      -0.44612510
H        0.17816969      -1.61798982      -0.90570871
H       -0.21337191      -1.12039293       1.53340505
H        1.03590697       0.16284420       1.47705113
H       -1.16993208       1.48418413       1.00997671
H       -2.31756345       0.72968547      -1.07909393
12
Frame=1 idx=000929 GeodesicLength=0.05711648041735402 rxn_smarts="[O:1]([C@@:2]1([H:8])[C:3]([H:9])([H:10])[C@@:4]2([H:11])[O:5][C@@:6]12[H:12])[H:7]>>[O:1]([C@@:2]1([H:8])[C:3]([H:9])([H:10])[C@@:4]([C:6][H:12])([H:11])[O:5]1)[H:7]"
O        1.84795726      -0.56083808      -0.87909879
C        0.66609996      -0.79437585      -0.41007625
C        0.20545264      -0.30685524       0.94094693
C       -0.80141466       0.67390397       0.39677296
O       -0.21012878       1.06272124      -0.84425337
C       -1.46140220       0.08889159      -0.78432124
H        2.23560198       0.22030045      -0.45984770
H        0.17484405      -1.62398927      -0.89562584
H       -0.21313961      -1.12158023       1.53580492
H        1.03805724       0.15968093       1.47951171
H       -1.17905135       1.48452152       1.01667575
H       -2.30287652       0.71761897      -1.09648906
12
Frame=2 idx=000929 GeodesicLength=0.11419870219475192 rxn_smarts="[O:1]([C@@:2]1([H:8])[C:3]([H:9])([H:10])[C@@:4]2([H:11])[O:5][C@@:6]12[H:12])[H:7]>>[O:1]([C@@:2]1([H:8])[C:3]([H:9])([H:10])[C@@:4]([C:6][H:12])([H:11])[O:5]1)[H:7]"
O        1.84100549      -0.56172780      -0.88690802
C        0.65067651      -0.78149562      -0.41813141
C        0.20482963      -0.30672016       0.94523388
C       -0.80290734       0.67675601       0.40501588
O       -0.20265181       1.06895646      -0.83276988
C       -1.44580857       0.08873318      -0.78296091
H        2.23171021       0.22047724      -0.47352581
H        0.17191727      -1.62933434      -0.88554503
H       -0.21302597      -1.12282032       1.53816066
H        1.04004058       0.15638381       1.48197802
H       -1.18772871       1.48493933       1.02301593
H       -2.28805729       0.70585220      -1.11356330
12
Frame=3 idx=000929 GeodesicLength=0.1713091845348123 rxn_smarts="[O:1]([C@@:2]1([H:8])[C:3]([H:9])([H:10])[C@@:4]2([H:11])[O:5][C@@:6]12[H:12])[H:7]>>[O:1]([C@@:2]1([H:8])[C:3]([H:9])([H:10])[C@@:4]([C:6][H:12])([H:11])[O:5]1)[H:7]"
O        1.83406403      -0.56250153      -0.89457392
C        0.63553186      -0.76899599      -0.42584974
C        0.20417196      -0.30674887       0.94936273
C       -0.80436186       0.67943754       0.41306065
O       -0.19536018       1.07464911      -0.82162192
C       -1.43073628       0.08866464      -0.78132058
H        2.22761666       0.22084774      -0.48715771
H        0.16935219      -1.63400130      -0.87550971
H       -0.21305366      -1.12407561       1.54046984
H        1.04183989       0.15296219       1.48442650
H       -1.19597439       1.48541988       1.02900277
H       -2.27309023       0.69434220      -1.13028891
12
Frame=4 idx=000929 GeodesicLength=0.22838724699654314 rxn_smarts="[O:1]([C@@:2]1([H:8])[C:3]([H:9])([H:10])[C@@:4]2([H:11])[O:5][C@@:6]12[H:12])[H:7]>>[O:1]([C@@:2]1([H:8])[C:3]([H:9])([H:10])[C@@:4]([C:6][H:12])([H:11])[O:5]1)[H:7]"
O        1.82714486      -0.56316959      -0.90210708
C        0.62066020      -0.75687943      -0.43323683
C        0.20349553      -0.30693503       0.95336963
C       -0.80577542       0.68197805       0.42092159
O       -0.18825008       1.07985203      -0.81080684
C       -1.41618482       0.08867654      -0.77944083
H        2.22334648       0.22141624      -0.50073292
H        0.16709744      -1.63806251      -0.86559036
H       -0.21319762      -1.12536679       1.54276872
H        1.04349315       0.14943155       1.48690140
H       -1.20380983       1.48599792       1.03467218
H       -2.25801989       0.68306102      -1.14671866
12
Frame=5 idx=000929 GeodesicLength=0.2854580341019614 rxn_smarts="[O:1]([C@@:2]1([H:8])[C:3]([H:9])([H:10])[C@@:4]2([H:11])[O:5][C@@:6]12[H:12])[H:7]>>[O:1]([C@@:2]1([H:8])[C:3]([H:9])([H:10])[C@@:4]([C:6][H:12])([H:11])[O:5]1)[H:7]"
O        1.82026718      -0.56373224      -0.90950465
C        0.60605446      -0.74512729      -0.44030265
C        0.20278936      -0.30726422       0.95725578
C       -0.80714181       0.68438556       0.42860410
O       -0.18130991       1.08456007      -0.80032137
C       -1.40214058       0.08875106      -0.77731390
H        2.21891692       0.22215832      -0.51423588
H        0.16513547      -1.64151272      -0.85582863
H       -0.21347039      -1.12667163       1.54505021
H        1.04498668       0.14579943       1.48939032
H       -1.21123707       1.48667780       1.04002871
H       -2.24285031       0.67197587      -1.16282203
12
Frame=6 idx=000929 GeodesicLength=0.34251594981866246 rxn_smarts="[O:1]([C@@:2]1([H:8])[C:3]([H:9])([H:10])[C@@:4]2([H:11])[O:5][C@@:6]12[H:12])[H:7]>>[O:1]([C@@:2]1([H:8])[C:3]([H:9])([H:10])[C@@:4]([C:6][H:12])([H:11])[O:5]1)[H:7]"
O        1.81343995      -0.56419250      -0.91677769
C        0.59170602      -0.73372082      -0.44705311
C        0.20205823      -0.30772494       0.96103820
C       -0.80845996       0.68667439       0.43611870
O       -0.17452253       1.08881161      -0.79014809
C       -1.38858651       0.08888721      -0.77496157
H        2.21435074       0.22306838      -0.52766951
H        0.16341780      -1.64440180      -0.84624804
H       -0.21386529      -1.12799006       1.54732758
H        1.04634061       0.14207412       1.49190349
H       -1.21828435       1.48745771       1.04509485
H       -2.22759471       0.66105671      -1.17862483
12
Frame=7 idx=000929 GeodesicLength=0.39955430160622696 rxn_smarts="[O:1]([C@@:2]1([H:8])[C:3]([H:9])([H:10])[C@@:4]2([H:11])[O:5][C@@:6]12[H:12])[H:7]>>[O:1]([C@@:2]1([H:8])[C:3]([H:9])([H:10])[C@@:4]([C:6][H:12])([H:11])[O:5]1)[H:7]"
O        1.80668067      -0.56455329      -0.92392176
C        0.57760833      -0.72264566      -0.45350250
C        0.20129799      -0.30830918       0.96472511
C       -0.80972332       0.68885955       0.44346979
O       -0.16788171       1.09262058      -0.78029123
C       -1.37551329       0.08907232      -0.77239463
H        2.20966651       0.22413538      -0.54101596
H        0.16192526      -1.64674963      -0.83689030
H       -0.21438757      -1.12931905       1.54960185
H        1.04755353       0.13826241       1.49444782
H       -1.22494847       1.48835570       1.04987986
H       -2.21227792       0.65027087      -1.19410805
12
Frame=8 idx=000929 GeodesicLength=0.4565806244190104 rxn_smarts="[O:1]([C@@:2]1([H:8])[C:3]([H:9])([H:10])[C@@:4]2([H:11])[O:5][C@@:6]12[H:12])[H:7]>>[O:1]([C@@:2]1([H:8])[C:3]([H:9])([H:10])[C@@:4]([C:6][H:12])([H:11])[O:5]1)[H:7]"
O        1.79999328      -0.56482059      -0.93095000
C        0.56375042      -0.71188278      -0.45965927
C        0.20051008      -0.30900571       0.96832819
C       -0.81093501       0.69094982       0.45067162
O       -0.16137533       1.09601773      -0.77072645
C       -1.36290155       0.08930607      -0.76962574
H        2.20487464       0.22535099      -0.55429081
H        0.16062607      -1.64859520      -0.82775941
H       -0.21502962      -1.13065370       1.55188037
H        1.04863573       0.13437224       1.49702504
H       -1.23125884       1.48936325       1.05440995
H       -2.19688987       0.63959788      -1.20930349
12
Frame=9 idx=000929 GeodesicLength=0.5135924171644386 rxn_smarts="[O:1]([C@@:2]1([H:8])[C:3]([H:9])([H:10])[C@@:4]2([H:11])[O:5][C@@:6]12[H:12])[H:7]>>[O:1]([C@@:2]1([H:8])[C:3]([H:9])([H:10])[C@@:4]([C:6][H:12])([H:11])[O:5]1)[H:7]"
O        1.79339296      -0.56499976      -0.93785580
C        0.55012678      -0.70141256      -0.46553934
C        0.19969095      -0.30980655       0.97185026
C       -0.81208847       0.69295891       0.45772566
O       -0.15499493       1.09902054      -0.76145506
C       -1.35073602       0.08958400      -0.76666922
H        2.19999415       0.22670194      -0.56747554
H        0.15950370      -1.64996158      -0.81888726
H       -0.21579665      -1.13198896       1.55415913
H        1.04958414       0.13040893       1.49963821
H       -1.23721714       1.49049142       1.05869038
H       -2.18145947       0.62900367      -1.22418143
12
Frame=10 idx=000929 GeodesicLength=0.5705918809267786 rxn_smarts="[O:1]([C@@:2]1([H:8])[C:3]([H:9])([H:10])[C@@:4]2([H:11])[O:5][C@@:6]12[H:12])[H:7]>>[O:1]([C@@:2]1([H:8])[C:3]([H:9])([H:10])[C@@:4]([C:6][H:12])([H:11])[O:5]1)[H:7]"
O        1.78688446      -0.56509650      -0.94464854
C        0.53672631      -0.69121874      -0.47115146
C        0.19884098      -0.31070304       0.97530122
C       -0.81318662       0.69489678       0.46464434
O       -0.14873162       1.10165928      -0.75245667
C       -1.33900083       0.08990697      -0.76353599
H        2.19503483       0.22818457      -0.58058617
H        0.15853569      -1.65088492      -0.81027188
H       -0.21668657      -1.13332370       1.55644084
H        1.05041040       0.12637476       1.50228943
H       -1.24284652       1.49173667       1.06274303
H       -2.16598052       0.61846787      -1.23876816
12
Frame=11 idx=000929 GeodesicLength=0.6275850181139837 rxn_smarts="[O:1]([C@@:2]1([H:8])[C:3]([H:9])([H:10])[C@@:4]2([H:11])[O:5][C@@:6]12[H:12])[H:7]>>[O:1]([C@@:2]1([H:8])[C:3]([H:9])([H:10])[C@@:4]([C:6][H:12])([H:11])[O:5]1)[H:7]"
O        1.78046319      -0.56511590      -0.95134368
C        0.52353633      -0.68128648      -0.47650738
C        0.19796271      -0.31168565       0.97869182
C       -0.81423160       0.69677107       0.47144182
O       -0.14256908       1.10396743      -0.74371052
C       -1.32767563       0.09027390      -0.76024443
H        2.18999866       0.22979335      -0.59364327
H        0.15769562      -1.65139690      -0.80190141
H       -0.21769205      -1.13465616       1.55873487
H        1.05112508       0.12227497       1.50498106
H       -1.24817876       1.49308758       1.06659926
H       -2.15043447       0.60797279      -1.25309815
12
Frame=12 idx=000929 GeodesicLength=0.6845776125257714 rxn_smarts="[O:1]([C@@:2]1([H:8])[C:3]([H:9])([H:10])[C@@:4]2([H:11])[O:5][C@@:6]12[H:12])[H:7]>>[O:1]([C@@:2]1([H:8])[C:3]([H:9])([H:10])[C@@:4]([C:6][H:12])([H:11])[O:5]1)[H:7]"
O        1.77413574      -0.56506332      -0.95794560
C        0.51055618      -0.67159388      -0.48160609
C        0.19705495      -0.31274995       0.98203212
C       -0.81522640       0.69858509       0.47812437
O       -0.13651129       1.10594950      -0.73519161
C       -1.31674528       0.09069989      -0.75679281
H        2.18488951       0.23152630      -0.60666731
H        0.15696354      -1.65152845      -0.79378218
H       -0.21880920      -1.13598233       1.56104244
H        1.05173345       0.11811513       1.50771843
H       -1.25322623       1.49453255       1.07026037
H       -2.13481496       0.59750946      -1.26719212
12
Frame=13 idx=000929 GeodesicLength=0.7415563743861181 rxn_smarts="[O:1]([C@@:2]1([H:8])[C:3]([H:9])([H:10])[C@@:4]2([H:11])[O:5][C@@:6]12[H:12])[H:7]>>[O:1]([C@@:2]1([H:8])[C:3]([H:9])([H:10])[C@@:4]([C:6][H:12])([H:11])[O:5]1)[H:7]"
O        1.76790865      -0.56494784      -0.96444725
C        0.49776794      -0.66213435      -0.48647499
C        0.19611469      -0.31388661       0.98531179
C       -0.81616802       0.70035498       0.48469518
O       -0.13054235       1.10765129      -0.72690634
C       -1.30619230       0.09117721      -0.75321005
H        2.17972134       0.23337058      -0.61963671
H        0.15634341      -1.65129971      -0.78590363
H       -0.22004340      -1.13729970       1.56334468
H        1.05223095       0.11389007       1.51048930
H       -1.25799763       1.49608460       1.07375101
H       -2.11914326       0.58703948      -1.28101299
12
Frame=14 idx=000929 GeodesicLength=0.798547009848241 rxn_smarts="[O:1]([C@@:2]1([H:8])[C:3]([H:9])([H:10])[C@@:4]2([H:11])[O:5][C@@:6]12[H:12])[H:7]>>[O:1]([C@@:2]1([H:8])[C:3]([H:9])([H:10])[C@@:4]([C:6][H:12])([H:11])[O:5]1)[H:7]"
O        1.76178144      -0.56476179      -0.97086502
C        0.48517642      -0.65288154      -0.49111133
C        0.19514194      -0.31509335       0.98854948
C       -0.81705708       0.70207917       0.49116451
O       -0.12465430       1.10906260      -0.71883040
C       -1.29600473       0.09170352      -0.74949112
H        2.17448956       0.23532856      -0.63258201
H        0.15579957      -1.65073086      -0.77827637
H       -0.22139329      -1.13860938       1.56566059
H        1.05262472       0.10960739       1.51330792
H       -1.26250706       1.49773385       1.07707277
H       -2.10339719       0.57656183      -1.29459904
12
Frame=15 idx=000929 GeodesicLength=0.8555224156183169 rxn_smarts="[O:1]([C@@:2]1([H:8])[C:3]([H:9])([H:10])[C@@:4]2([H:11])[O:5][C@@:6]12[H:12])[H:7]>>[O:1]([C@@:2]1([H:8])[C:3]([H:9])([H:10])[C@@:4]([C:6][H:12])([H:11])[O:5]1)[H:7]"
O        1.75576626      -0.56451563      -0.97718967
C        0.47276663      -0.64383081      -0.49553713
C        0.19413464      -0.31636591       0.99173896
C       -0.81789217       0.70377331       0.49753055
O       -0.11884840       1.11022400      -0.71097161
C       -1.28617153       0.09228439      -0.74566068
H        2.16921546       0.23739092      -0.64547743
H        0.15533951      -1.64985073      -0.77090166
H       -0.22286092      -1.13991351       1.56797624
H        1.05291675       0.10526533       1.51617143
H       -1.26675437       1.49949183       1.08023785
H       -2.08761186       0.56604681      -1.30791684
12
Frame=16 idx=000929 GeodesicLength=0.9124839812757067 rxn_smarts="[O:1]([C@@:2]1([H:8])[C:3]([H:9])([H:10])[C@@:4]2([H:11])[O:5][C@@:6]12[H:12])[H:7]>>[O:1]([C@@:2]1([H:8])[C:3]([H:9])([H:10])[C@@:4]([C:6][H:12])([H:11])[O:5]1)[H:7]"
O        1.74987430      -0.56420817      -0.98341566
C        0.46053855      -0.63496533      -0.49976533
C        0.19308897      -0.31770105       0.99487762
C       -0.81866977       0.70544421       0.50379080
O       -0.11312005       1.11114115      -0.70333106
C       -1.27667987       0.09291618      -0.74172802
H        2.16390858       0.23955031      -0.65830790
H        0.15495666      -1.64867370      -0.76378938
H       -0.22445211      -1.14121112       1.57028119
H        1.05310080       0.10086490       1.51907926
H       -1.27073410       1.50136622       1.08324429
H       -2.07181197       0.55547642      -1.32093581
