14
Frame=0 idx=009243 GeodesicLength=0.0 rxn_smarts="[C:1]([C@@:2]([C:3](=[O:4])[H:12])([C:5](=[O:6])[N:7]([H:13])[H:14])[H:11])([H:8])([H:9])[H:10]>>[C:1]1([H:9])([H:10])[C@:2]([C:3](=[O:4])[H:12])([H:11])[C@:5]1([O:6][H:8])[N:7]([H:13])[H:14]"
C       -0.94885275      -1.17526137       0.47842486
C       -0.52732574      -0.02965425      -0.37974842
C       -1.20658165       1.31386153      -0.15795886
O       -2.20777348       1.46526692       0.47638834
C        0.87108042       0.02025437       0.11535710
O        1.12877273       0.19676655       1.39373253
N        1.92568029      -0.07698164      -0.67052496
H        0.32900380      -0.27673688       1.77343965
H       -1.85250216      -0.98029548       1.04920715
H       -0.93427166      -2.13493957      -0.02509006
H       -0.52838475      -0.18014568      -1.47118669
H       -0.70291330       2.18065141      -0.63826972
H        1.81665554      -0.08784952      -1.66862489
H        2.83741266      -0.23493633      -0.27514607
14
Frame=1 idx=009243 GeodesicLength=0.10904765492186369 rxn_smarts="[C:1]([C@@:2]([C:3](=[O:4])[H:12])([C:5](=[O:6])[N:7]([H:13])[H:14])[H:11])([H:8])([H:9])[H:10]>>[C:1]1([H:9])([H:10])[C@:2]([C:3](=[O:4])[H:12])([H:11])[C@:5]1([O:6][H:8])[N:7]([H:13])[H:14]"
C       -0.92838789      -1.16893400       0.46677390
C       -0.53135735      -0.01290755      -0.39281910
C       -1.21440718       1.32225823      -0.14974576
O       -2.18529976       1.46784207       0.53258317
C        0.86681468       0.02479972       0.11108189
O        1.11353067       0.21242297       1.38992885
N        1.92517387      -0.08915331      -0.67230855
H        0.28797094      -0.26648886       1.76820104
H       -1.84208266      -0.99715402       1.02871412
H       -0.89642945      -2.12738052      -0.03895658
H       -0.53614356      -0.15975942      -1.48353437
H       -0.72256295       2.19622166      -0.62870049
H        1.82254922      -0.20935878      -1.66391042
H        2.84063141      -0.19240820      -0.26730772
14
Frame=2 idx=009243 GeodesicLength=0.2177427972698136 rxn_smarts="[C:1]([C@@:2]([C:3](=[O:4])[H:12])([C:5](=[O:6])[N:7]([H:13])[H:14])[H:11])([H:8])([H:9])[H:10]>>[C:1]1([H:9])([H:10])[C@:2]([C:3](=[O:4])[H:12])([H:11])[C@:5]1([O:6][H:8])[N:7]([H:13])[H:14]"
C       -0.90881659      -1.16222244       0.45548054
C       -0.53516540       0.00347898      -0.40528572
C       -1.22151848       1.33032440      -0.14117605
O       -2.16207604       1.46961032       0.58483188
C        0.86278140       0.02846366       0.10698826
O        1.09991645       0.22641187       1.38585040
N        1.92366844      -0.10128262      -0.67551400
H        0.24796110      -0.25848941       1.76261567
H       -1.83164947      -1.01264348       1.00852465
H       -0.86073031      -2.11912296      -0.05253122
H       -0.54332092      -0.13996571      -1.49523146
H       -0.74164935       2.21090925      -0.61950018
H        1.82868541      -0.32856821      -1.64902082
H        2.84191375      -0.14690367      -0.26603195
14
Frame=3 idx=009243 GeodesicLength=0.32622878347834783 rxn_smarts="[C:1]([C@@:2]([C:3](=[O:4])[H:12])([C:5](=[O:6])[N:7]([H:13])[H:14])[H:11])([H:8])([H:9])[H:10]>>[C:1]1([H:9])([H:10])[C@:2]([C:3](=[O:4])[H:12])([H:11])[C@:5]1([O:6][H:8])[N:7]([H:13])[H:14]"
C       -0.88976154      -1.15510754       0.44458381
C       -0.53872171       0.01954357      -0.41718318
C       -1.22821442       1.33791402      -0.13242783
O       -2.13852496       1.47047541       0.63348590
C        0.85897835       0.03169834       0.10300170
O        1.08781746       0.23949918       1.38137933
N        1.92132244      -0.11346247      -0.67996716
H        0.20891966      -0.25209448       1.75665053
H       -1.82095980      -1.02694677       0.98865134
H       -0.82650194      -2.11018733      -0.06568545
H       -0.54989356      -0.12083823      -1.50624543
H       -0.76071600       2.22468039      -0.61075925
H        1.83542203      -0.44248827      -1.62475309
H        2.84083398      -0.10268582      -0.27073121
14
Frame=4 idx=009243 GeodesicLength=0.4346660729695289 rxn_smarts="[C:1]([C@@:2]([C:3](=[O:4])[H:12])([C:5](=[O:6])[N:7]([H:13])[H:14])[H:11])([H:8])([H:9])[H:10]>>[C:1]1([H:9])([H:10])[C@:2]([C:3](=[O:4])[H:12])([H:11])[C@:5]1([O:6][H:8])[N:7]([H:13])[H:14]"
C       -0.87116830      -1.14771836       0.43418904
C       -0.54204112       0.03524079      -0.42853381
C       -1.23453319       1.34502363      -0.12359417
O       -2.11499232       1.47052438       0.67869602
C        0.85544993       0.03461860       0.09912930
O        1.07718701       0.25213452       1.37662173
N        1.91833642      -0.12605880      -0.68544193
H        0.17073565      -0.24697873       1.75051409
H       -1.81008280      -1.04028392       0.96919380
H       -0.79359637      -2.10081312      -0.07829311
H       -0.55601323      -0.10251292      -1.51665949
H       -0.77979195       2.23764908      -0.60248555
H        1.84282336      -0.54922333      -1.59278240
H        2.83768690      -0.06160181      -0.28055352
14
Frame=5 idx=009243 GeodesicLength=0.5431347532488247 rxn_smarts="[C:1]([C@@:2]([C:3](=[O:4])[H:12])([C:5](=[O:6])[N:7]([H:13])[H:14])[H:11])([H:8])([H:9])[H:10]>>[C:1]1([H:9])([H:10])[C@:2]([C:3](=[O:4])[H:12])([H:11])[C@:5]1([O:6][H:8])[N:7]([H:13])[H:14]"
C       -0.85288034      -1.14019894       0.42437770
C       -0.54515615       0.05059308      -0.43944444
C       -1.24066596       1.35162605      -0.11494523
O       -2.09139789       1.46979892       0.72098351
C        0.85214564       0.03754598       0.09533665
O        1.06776999       0.26507160       1.37162199
N        1.91482017      -0.13884595      -0.69168945
H        0.13333624      -0.24291676       1.74439392
H       -1.79886678      -1.05298060       0.95032392
H       -0.76173775      -2.09122726      -0.09023094
H       -0.56183366      -0.08502422      -1.52665873
H       -0.79913400       2.24993851      -0.59489914
H        1.85084861      -0.64721185      -1.55520996
H        2.83275188      -0.02616855      -0.29395979
14
Frame=6 idx=009243 GeodesicLength=0.6515814450733328 rxn_smarts="[C:1]([C@@:2]([C:3](=[O:4])[H:12])([C:5](=[O:6])[N:7]([H:13])[H:14])[H:11])([H:8])([H:9])[H:10]>>[C:1]1([H:9])([H:10])[C@:2]([C:3](=[O:4])[H:12])([H:11])[C@:5]1([O:6][H:8])[N:7]([H:13])[H:14]"
C       -0.83496288      -1.13251651       0.41506163
C       -0.54805375       0.06560451      -0.44983006
C       -1.24643577       1.35781831      -0.10623026
O       -2.06818119       1.46846791       0.76030171
C        0.84912220       0.04019311       0.09164334
O        1.05961397       0.27803155       1.36634775
N        1.91087678      -0.15232304      -0.69856109
H        0.09653587      -0.23991835       1.73823244
H       -1.78750093      -1.06495913       0.93183965
H       -0.73097300      -2.08139087      -0.10162805
H       -0.56748404      -0.06830017      -1.53610003
H       -0.81845519       2.26160820      -0.58751182
H        1.85936821      -0.73772658      -1.51283415
H        2.82652973       0.00541106      -0.31073106
14
Frame=7 idx=009243 GeodesicLength=0.7600000368590247 rxn_smarts="[C:1]([C@@:2]([C:3](=[O:4])[H:12])([C:5](=[O:6])[N:7]([H:13])[H:14])[H:11])([H:8])([H:9])[H:10]>>[C:1]1([H:9])([H:10])[C@:2]([C:3](=[O:4])[H:12])([H:11])[C@:5]1([O:6][H:8])[N:7]([H:13])[H:14]"
C       -0.81737904      -1.12468349       0.40617339
C       -0.55073652       0.08032138      -0.45969803
C       -1.25182519       1.36363622      -0.09743375
O       -2.04535620       1.46663067       0.79696303
C        0.84635817       0.04254395       0.08803518
O        1.05264167       0.29107201       1.36075376
N        1.90651910      -0.16652076      -0.70592720
H        0.06020881      -0.23799315       1.73200049
H       -1.77599571      -1.07629106       0.91361461
H       -0.70121144      -2.07130736      -0.11255610
H       -0.57304428      -0.05222588      -1.54496687
H       -0.83773417       2.27271333      -0.58019917
H        1.86838108      -0.82141941      -1.46631831
H        2.81917372       0.03352354      -0.33044102
14
Frame=8 idx=009243 GeodesicLength=0.8684338074509891 rxn_smarts="[C:1]([C@@:2]([C:3](=[O:4])[H:12])([C:5](=[O:6])[N:7]([H:13])[H:14])[H:11])([H:8])([H:9])[H:10]>>[C:1]1([H:9])([H:10])[C@:2]([C:3](=[O:4])[H:12])([H:11])[C@:5]1([O:6][H:8])[N:7]([H:13])[H:14]"
C       -0.80016673      -1.11674597       0.39767923
C       -0.55321178       0.09476233      -0.46907034
C       -1.25680746       1.36912071      -0.08853910
O       -2.02293924       1.46438884       0.83128930
C        0.84385480       0.04458572       0.08451176
O        1.04681184       0.30426985       1.35486133
N        1.90180584      -0.18148233      -0.71370338
H        0.02419217      -0.23713065       1.72575402
H       -1.76446597      -1.08706742       0.89557764
H       -0.67246208      -2.06104771      -0.12307660
H       -0.57856056      -0.03674728      -1.55330934
H       -0.85689966       2.28331959      -0.57288570
H        1.87800125      -0.89880860      -1.41626659
H        2.81084757       0.05858292      -0.35282222
14
Frame=9 idx=009243 GeodesicLength=0.9768726463529234 rxn_smarts="[C:1]([C@@:2]([C:3](=[O:4])[H:12])([C:5](=[O:6])[N:7]([H:13])[H:14])[H:11])([H:8])([H:9])[H:10]>>[C:1]1([H:9])([H:10])[C@:2]([C:3](=[O:4])[H:12])([H:11])[C@:5]1([O:6][H:8])[N:7]([H:13])[H:14]"
C       -0.78331724      -1.10874919       0.38955079
C       -0.55548816       0.10895842      -0.47798629
C       -1.26138158       1.37431752      -0.07958135
O       -2.00085244       1.46182052       0.86357315
C        0.84157944       0.04633252       0.08107792
O        1.04206007       0.31771757       1.34866344
N        1.89672121      -0.19719406      -0.72181218
H       -0.01164089      -0.23735126       1.71953792
H       -1.75292717      -1.09736969       0.87768057
H       -0.64469698      -2.05067398      -0.13323598
H       -0.58406959      -0.02179329      -1.56118968
H       -0.87592734       2.29349717      -0.56552426
H        1.88836768      -0.97028755      -1.36313851
H        2.80157301       0.08077530      -0.37761554
14
Frame=10 idx=009243 GeodesicLength=1.0852864929992738 rxn_smarts="[C:1]([C@@:2]([C:3](=[O:4])[H:12])([C:5](=[O:6])[N:7]([H:13])[H:14])[H:11])([H:8])([H:9])[H:10]>>[C:1]1([H:9])([H:10])[C@:2]([C:3](=[O:4])[H:12])([H:11])[C@:5]1([O:6][H:8])[N:7]([H:13])[H:14]"
C       -0.76680632      -1.10069336       0.38176303
C       -0.55754588       0.12293436      -0.48641776
C       -1.26549705       1.37927651      -0.07049196
O       -1.97928105       1.45897426       0.89390340
C        0.83956680       0.04774993       0.07775889
O        1.03843846       0.33140381       1.34215984
N        1.89131002      -0.21384680      -0.73012221
H       -0.04743312      -0.23859756       1.71334227
H       -1.74144635      -1.10723760       0.85977227
H       -0.61782900      -2.04020072      -0.14305452
H       -0.58957930      -0.00730291      -1.56856115
H       -0.89474585       2.30329830      -0.55799349
H        1.89943784      -1.03618893      -1.30726499
H        2.79141080       0.10043073      -0.40479362
14
Frame=11 idx=009243 GeodesicLength=1.1936998667445735 rxn_smarts="[C:1]([C@@:2]([C:3](=[O:4])[H:12])([C:5](=[O:6])[N:7]([H:13])[H:14])[H:11])([H:8])([H:9])[H:10]>>[C:1]1([H:9])([H:10])[C@:2]([C:3](=[O:4])[H:12])([H:11])[C@:5]1([O:6][H:8])[N:7]([H:13])[H:14]"
C       -0.75062565      -1.09257914       0.37429163
C       -0.55938212       0.13671419      -0.49437561
C       -1.26915609       1.38400464      -0.06127029
O       -1.95816623       1.45589077       0.92253212
C        0.83780085       0.04885292       0.07454746
O        1.03592275       0.34540150       1.33530370
N        1.88556677      -0.23147140      -0.73856402
H       -0.08332878      -0.24087872       1.70714955
H       -1.73006031      -1.11670259       0.84176490
H       -0.59181288      -2.02962549      -0.15256064
H       -0.59508340       0.00677774      -1.57542868
H       -0.91335508       2.31272631      -0.55026284
H        1.91133009      -1.09673894      -1.24888890
H        2.78035010       0.11762822      -0.43423838
14
Frame=12 idx=009243 GeodesicLength=1.3020898016971616 rxn_smarts="[C:1]([C@@:2]([C:3](=[O:4])[H:12])([C:5](=[O:6])[N:7]([H:13])[H:14])[H:11])([H:8])([H:9])[H:10]>>[C:1]1([H:9])([H:10])[C@:2]([C:3](=[O:4])[H:12])([H:11])[C@:5]1([O:6][H:8])[N:7]([H:13])[H:14]"
C       -0.73473649      -1.08442379       0.36713684
C       -0.56098432       0.15032417      -0.50186452
C       -1.27235323       1.38854020      -0.05191468
O       -1.93755495       1.45259667       0.94959933
C        0.83629258       0.04967248       0.07146755
O        1.03453287       0.35980336       1.32808882
N        1.87950042      -0.25013240      -0.74702654
H       -0.11945748      -0.24416859       1.70097688
H       -1.71878352      -1.12583037       0.82355759
H       -0.56655525      -2.01898490      -0.16174800
H       -0.60057337       0.02049599      -1.58180432
H       -0.93174306       2.32183308      -0.54229107
H        1.92402634      -1.15204732      -1.18836322
H        2.76838945       0.13232142      -0.46581465
14
Frame=13 idx=009243 GeodesicLength=1.4104483864386597 rxn_smarts="[C:1]([C@@:2]([C:3](=[O:4])[H:12])([C:5](=[O:6])[N:7]([H:13])[H:14])[H:11])([H:8])([H:9])[H:10]>>[C:1]1([H:9])([H:10])[C@:2]([C:3](=[O:4])[H:12])([H:11])[C@:5]1([O:6][H:8])[N:7]([H:13])[H:14]"
C       -0.71910049      -1.07622794       0.36030757
C       -0.56233385       0.16378382      -0.50887823
C       -1.27508304       1.39290286      -0.04242056
O       -1.91747409       1.44911267       0.97523998
C        0.83505111       0.05023317       0.06854589
O        1.03428762       0.37469666       1.32049374
N        1.87312029      -0.26988557      -0.75538616
H       -0.15596754      -0.24844862       1.69481926
H       -1.70762800      -1.13466271       0.80504366
H       -0.54195736      -2.00829123      -0.17058950
H       -0.60602114       0.03388625      -1.58767761
H       -0.94990979       2.33063590      -0.53405677
H        1.93748527      -1.20216482      -1.12606222
H        2.75553101       0.14442956      -0.49937906
14
Frame=14 idx=009243 GeodesicLength=1.5187747478077358 rxn_smarts="[C:1]([C@@:2]([C:3](=[O:4])[H:12])([C:5](=[O:6])[N:7]([H:13])[H:14])[H:11])([H:8])([H:9])[H:10]>>[C:1]1([H:9])([H:10])[C@:2]([C:3](=[O:4])[H:12])([H:11])[C@:5]1([O:6][H:8])[N:7]([H:13])[H:14]"
C       -0.70369299      -1.06800263       0.35382896
C       -0.56341554       0.17710236      -0.51541613
C       -1.27734445       1.39711454      -0.03279347
O       -1.89794747       1.44545912       0.99958171
C        0.83408183       0.05055948       0.06580864
O        1.03520752       0.39018854       1.31249163
N        1.86643821      -0.29074580      -0.76354187
H       -0.19302762      -0.25370689       1.68868015
H       -1.69661263      -1.14324584       0.78614319
H       -0.51793830      -1.99757899      -0.17903795
H       -0.61139475       0.04695888      -1.59305296
H       -0.96782324       2.33916245      -0.52553173
H        1.95168305      -1.24711892      -1.06240443
H        2.74178638       0.15385371      -0.53475574
14
Frame=15 idx=009243 GeodesicLength=1.627052753568214 rxn_smarts="[C:1]([C@@:2]([C:3](=[O:4])[H:12])([C:5](=[O:6])[N:7]([H:13])[H:14])[H:11])([H:8])([H:9])[H:10]>>[C:1]1([H:9])([H:10])[C@:2]([C:3](=[O:4])[H:12])([H:11])[C@:5]1([O:6][H:8])[N:7]([H:13])[H:14]"
C       -0.68844787      -1.05973222       0.34774337
C       -0.56419552       0.19029514      -0.52146154
C       -1.27913189       1.40117970      -0.02303336
O       -1.87902441       1.44162676       1.02270943
C        0.83340783       0.05070062       0.06329784
O        1.03733009       0.40640497       1.30405299
N        1.85947560      -0.31270414      -0.77134801
H       -0.23079537      -0.25991659       1.68254752
H       -1.68571450      -1.15162289       0.76673802
H       -0.49435829      -1.98684582      -0.18700705
H       -0.61664546       0.05972893      -1.59790686
H       -0.98550941       2.34740634      -0.51672275
H        1.96639702      -1.28689622      -0.99795180
H        2.72721219       0.16037541      -0.57165781
14
Frame=16 idx=009243 GeodesicLength=1.7352796141188052 rxn_smarts="[C:1]([C@@:2]([C:3](=[O:4])[H:12])([C:5](=[O:6])[N:7]([H:13])[H:14])[H:11])([H:8])([H:9])[H:10]>>[C:1]1([H:9])([H:10])[C@:2]([C:3](=[O:4])[H:12])([H:11])[C@:5]1([O:6][H:8])[N:7]([H:13])[H:14]"
C       -0.67334026      -1.05141855       0.34210460
C       -0.56465566       0.20335778      -0.52699947
C       -1.28044383       1.40511284      -0.01314725
O       -1.86072363       1.43764298       1.04471961
C        0.83304075       0.05066875       0.06105667
O        1.04070011       0.42345606       1.29513546
N        1.85225781      -0.33570950      -0.77869234
H       -0.26946715      -0.26707828       1.67640195
H       -1.67494423      -1.15982405       0.74673969
H       -0.47113257      -1.97612353      -0.19439553
H       -0.62173765       0.07217544      -1.60221996
H       -1.00293889       2.35537371      -0.50762570
H        1.98152452      -1.32155169      -0.93326539
H        2.71186067       0.16391806      -0.60981235
