19
Frame=0 idx=006572 GeodesicLength=0.0 rxn_smarts="[C:1]([C@@:2]1([H:11])[O:3][C:4]([H:12])([H:13])[C:5]1([C:6]([H:14])([H:15])[H:16])[C:7]([H:17])([H:18])[H:19])([H:8])([H:9])[H:10]>>[C:1]([C:2][C:5]([C:4]([O:3][H:11])([H:12])[H:13])([C:6]([H:14])([H:15])[H:16])[C:7]([H:17])([H:18])[H:19])([H:8])([H:9])[H:10]"
C        1.77054765      -0.51143821      -1.11393040
C        1.16147064       0.17625759       0.03735231
O        0.59808617       2.01713850      -0.34497526
C       -0.56143626       1.54080030       0.36086458
C       -0.33125073       0.02351950       0.30981803
C       -0.57335557      -0.71510973       1.62439387
C       -1.15922332      -0.60167654      -0.81258988
H        2.76052178      -0.12778756      -1.35691712
H        1.90794514      -1.54186809      -0.75180163
H        1.15449925      -0.57007067      -2.01592173
H        1.37517908       1.50187983       0.26517084
H       -1.45815870       1.87175401      -0.16425929
H       -0.58272231       1.93641592       1.38213238
H       -0.00373204      -0.26364456       2.43734363
H       -0.27662628      -1.76417130       1.54327964
H       -1.63377785      -0.69448490       1.88806260
H       -0.89329503      -1.64785591      -0.98398529
H       -1.03427753      -0.05919339      -1.75180030
H       -2.22039417      -0.57046485      -0.55223707
19
Frame=1 idx=006572 GeodesicLength=0.05422422302304202 rxn_smarts="[C:1]([C@@:2]1([H:11])[O:3][C:4]([H:12])([H:13])[C:5]1([C:6]([H:14])([H:15])[H:16])[C:7]([H:17])([H:18])[H:19])([H:8])([H:9])[H:10]>>[C:1]([C:2][C:5]([C:4]([O:3][H:11])([H:12])[H:13])([C:6]([H:14])([H:15])[H:16])[C:7]([H:17])([H:18])[H:19])([H:8])([H:9])[H:10]"
C        1.77602128      -0.52413611      -1.10806250
C        1.15338669       0.18791623       0.01948926
O        0.58135821       2.02307480      -0.34932781
C       -0.56865441       1.54497433       0.36827587
C       -0.33380029       0.02828253       0.30616173
C       -0.56839799      -0.71825133       1.61685491
C       -1.16346382      -0.59164845      -0.81826254
H        2.75836992      -0.12950752      -1.36468776
H        1.93508029      -1.53949553      -0.71374797
H        1.16380383      -0.62434619      -2.00873014
H        1.37845181       1.51293305       0.25994541
H       -1.47410406       1.87642957      -0.14152689
H       -0.57885834       1.93511057       1.39200559
H        0.00480183      -0.27218648       2.43042936
H       -0.27383376      -1.76718243       1.52781496
H       -1.62734502      -0.69732357       1.88661091
H       -0.90073638      -1.63806773      -0.99249944
H       -1.03808694      -0.04586750      -1.75536079
H       -2.22399286      -0.56070823      -0.55538216
19
Frame=2 idx=006572 GeodesicLength=0.10825341805255201 rxn_smarts="[C:1]([C@@:2]1([H:11])[O:3][C:4]([H:12])([H:13])[C:5]1([C:6]([H:14])([H:15])[H:16])[C:7]([H:17])([H:18])[H:19])([H:8])([H:9])[H:10]>>[C:1]([C:2][C:5]([C:4]([O:3][H:11])([H:12])[H:13])([C:6]([H:14])([H:15])[H:16])[C:7]([H:17])([H:18])[H:19])([H:8])([H:9])[H:10]"
C        1.78130404      -0.53687299      -1.10174450
C        1.14505765       0.19957977       0.00091460
O        0.56467493       2.02917584      -0.35323696
C       -0.57577926       1.54905854       0.37572407
C       -0.33637278       0.03306955       0.30229478
C       -0.56330402      -0.72148382       1.60894584
C       -1.16781227      -0.58143330      -0.82414530
H        2.75530555      -0.13156918      -1.37367599
H        1.96268490      -1.53502187      -0.67461539
H        1.17294055      -0.68000518      -1.99894106
H        1.38179689       1.52367738       0.25464484
H       -1.48967752       1.88091159      -0.11868672
H       -0.57490068       1.93354408       1.40182363
H        0.01369365      -0.28093716       2.42298641
H       -0.27096805      -1.77021500       1.51181878
H       -1.62069475      -0.70031084       1.88494381
H       -0.90839673      -1.62808867      -1.00127011
H       -1.04188182      -0.03238959      -1.75911256
H       -2.22767028      -0.55068915      -0.55866817
19
Frame=3 idx=006572 GeodesicLength=0.16211836746765565 rxn_smarts="[C:1]([C@@:2]1([H:11])[O:3][C:4]([H:12])([H:13])[C:5]1([C:6]([H:14])([H:15])[H:16])[C:7]([H:17])([H:18])[H:19])([H:8])([H:9])[H:10]>>[C:1]([C:2][C:5]([C:4]([O:3][H:11])([H:12])[H:13])([C:6]([H:14])([H:15])[H:16])[C:7]([H:17])([H:18])[H:19])([H:8])([H:9])[H:10]"
C        1.78638955      -0.54964805      -1.09490992
C        1.13648703       0.21126027      -0.01838009
O        0.54800281       2.03543337      -0.35673827
C       -0.58281981       1.55304868       0.38320093
C       -0.33896167       0.03788044       0.29820313
C       -0.55804389      -0.72481743       1.60063423
C       -1.17226874      -0.57103092      -0.83024151
H        2.75133496      -0.13420524      -1.38380796
H        1.99063524      -1.52832973      -0.63448955
H        1.18194862      -0.73686483      -1.98634961
H        1.38521458       1.53409626       0.24923350
H       -1.50492083       1.88520134      -0.09571077
H       -0.57082273       1.93170785       1.41156499
H        0.02298733      -0.28990715       2.41496703
H       -0.26797943      -1.77327287       1.49525192
H       -1.61379696      -0.70346522       1.88303079
H       -0.91625387      -1.61791385      -1.01031883
H       -1.04570473      -0.01875176      -1.76304909
H       -2.23142747      -0.54042115      -0.56209093
19
Frame=4 idx=006572 GeodesicLength=0.21579116703514467 rxn_smarts="[C:1]([C@@:2]1([H:11])[O:3][C:4]([H:12])([H:13])[C:5]1([C:6]([H:14])([H:15])[H:16])[C:7]([H:17])([H:18])[H:19])([H:8])([H:9])[H:10]>>[C:1]([C:2][C:5]([C:4]([O:3][H:11])([H:12])[H:13])([C:6]([H:14])([H:15])[H:16])[C:7]([H:17])([H:18])[H:19])([H:8])([H:9])[H:10]"
C        1.79126079      -0.56238245      -1.08756656
C        1.12767978       0.22291848      -0.03838023
O        0.53144802       2.04186887      -0.35985199
C       -0.58972243       1.55694564       0.39066469
C       -0.34155120       0.04268433       0.29389646
C       -0.55263869      -0.72827235       1.59198571
C       -1.17683280      -0.56051468      -0.83656823
H        2.74647463      -0.13754057      -1.39504775
H        2.01874660      -1.51929352      -0.59361250
H        1.19080728      -0.79457689      -1.97083809
H        1.38877095       1.54416435       0.24377358
H       -1.51975829       1.88928939      -0.07271959
H       -0.56659746       1.92963127       1.42120915
H        0.03264483      -0.29907241       2.40645876
H       -0.26490018      -1.77639613       1.47822692
H       -1.60667298      -0.70681600       1.88091711
H       -0.92428994      -1.60762281      -1.01966702
H       -1.04960640      -0.00499129      -1.76722030
H       -2.23526252      -0.53002325      -0.56566012
19
Frame=5 idx=006572 GeodesicLength=0.26930462470513505 rxn_smarts="[C:1]([C@@:2]1([H:11])[O:3][C:4]([H:12])([H:13])[C:5]1([C:6]([H:14])([H:15])[H:16])[C:7]([H:17])([H:18])[H:19])([H:8])([H:9])[H:10]>>[C:1]([C:2][C:5]([C:4]([O:3][H:11])([H:12])[H:13])([C:6]([H:14])([H:15])[H:16])[C:7]([H:17])([H:18])[H:19])([H:8])([H:9])[H:10]"
C        1.79591225      -0.57509739      -1.07964434
C        1.11861414       0.23456769      -0.05913827
O        0.51495041       2.04840527      -0.36257475
C       -0.59650799       1.56070768       0.39815185
C       -0.34414418       0.04749560       0.28934684
C       -0.54708006      -0.73183210       1.58290277
C       -1.18149120      -0.54981832      -0.84311466
H        2.74061443      -0.14174216      -1.40749077
H        2.04714932      -1.50766512      -0.55193505
H        1.19953908      -0.85329441      -1.95207197
H        1.39242686       1.55380018       0.23820265
H       -1.53423434       1.89314156      -0.04958226
H       -0.56221086       1.92723884       1.43076534
H        0.04268018      -0.30846245       2.39732963
H       -0.26170268      -1.77952797       1.46058835
H       -1.59930596      -0.71033918       1.87853001
H       -0.93246639      -1.59711084      -1.02935474
H       -1.05358787       0.00895362      -1.77156682
H       -2.23915515      -0.51942051      -0.56934382
19
Frame=6 idx=006572 GeodesicLength=0.3226390638735547 rxn_smarts="[C:1]([C@@:2]1([H:11])[O:3][C:4]([H:12])([H:13])[C:5]1([C:6]([H:14])([H:15])[H:16])[C:7]([H:17])([H:18])[H:19])([H:8])([H:9])[H:10]>>[C:1]([C:2][C:5]([C:4]([O:3][H:11])([H:12])[H:13])([C:6]([H:14])([H:15])[H:16])[C:7]([H:17])([H:18])[H:19])([H:8])([H:9])[H:10]"
C        1.80033662      -0.58769720      -1.07115315
C        1.10930718       0.24614939      -0.08060679
O        0.49861873       2.05504814      -0.36495062
C       -0.60312324       1.56433778       0.40560548
C       -0.34672297       0.05227511       0.28457345
C       -0.54138911      -0.73550916       1.57346564
C       -1.18624781      -0.53904388      -0.84988022
H        2.73383690      -0.14698039      -1.42095730
H        2.07555125      -1.49342313      -0.50984290
H        1.20815338      -0.91243591      -1.93002576
H        1.39626037       1.56297326       0.23258223
H       -1.54828225       1.89674955      -0.02644051
H       -0.55763006       1.92458179       1.44018899
H        0.05305363      -0.31802909       2.38767922
H       -0.25841148      -1.78270775       1.44248255
H       -1.59172383      -0.71405143       1.87591998
H       -0.94074313      -1.58648632      -1.03938949
H       -1.05773227       0.02302104      -1.77611895
H       -2.24311191      -0.50877180      -0.57313185
19
Frame=7 idx=006572 GeodesicLength=0.37592443990088786 rxn_smarts="[C:1]([C@@:2]1([H:11])[O:3][C:4]([H:12])([H:13])[C:5]1([C:6]([H:14])([H:15])[H:16])[C:7]([H:17])([H:18])[H:19])([H:8])([H:9])[H:10]>>[C:1]([C:2][C:5]([C:4]([O:3][H:11])([H:12])[H:13])([C:6]([H:14])([H:15])[H:16])[C:7]([H:17])([H:18])[H:19])([H:8])([H:9])[H:10]"
C        1.80451689      -0.60019150      -1.06199446
C        1.09973984       0.25766895      -0.10282392
O        0.48239099       2.06176929      -0.36698137
C       -0.60957685       1.56782729       0.41305082
C       -0.34928880       0.05703281       0.27954335
C       -0.53553796      -0.73932354       1.56358512
C       -1.19112008      -0.52812657      -0.85688445
H        2.72599831      -0.15342953      -1.43554930
H        2.10411584      -1.47628599      -0.46726011
H        1.21665201      -0.97219472      -1.90427371
H        1.40024943       1.57162726       0.22685986
H       -1.56194510       1.90012709      -0.00319334
H       -0.55280398       1.92161295       1.44948768
H        0.06381732      -0.32783609       2.37740540
H       -0.25497241      -1.78593888       1.42376366
H       -1.58389294      -0.71796999       1.87300188
H       -0.94911110      -1.57566886      -1.04984529
H       -1.06208608       0.03730447      -1.78085342
H       -2.24714532      -0.49800444      -0.57703840
19
Frame=8 idx=006572 GeodesicLength=0.42897045997264216 rxn_smarts="[C:1]([C@@:2]1([H:11])[O:3][C:4]([H:12])([H:13])[C:5]1([C:6]([H:14])([H:15])[H:16])[C:7]([H:17])([H:18])[H:19])([H:8])([H:9])[H:10]>>[C:1]([C:2][C:5]([C:4]([O:3][H:11])([H:12])[H:13])([C:6]([H:14])([H:15])[H:16])[C:7]([H:17])([H:18])[H:19])([H:8])([H:9])[H:10]"
C        1.80842540      -0.61246620      -1.05222685
C        1.08992816       0.26907977      -0.12573834
O        0.46637013       2.06845108      -0.36872577
C       -0.61582410       1.57110488       0.42043368
C       -0.35181459       0.06173411       0.27428797
C       -0.52957954      -0.74322797       1.55333438
C       -1.19602914      -0.51716200      -0.86406043
H        2.71725694      -0.16129342      -1.45096253
H        2.13237952      -1.45634123      -0.42470209
H        1.22502690      -1.03175944      -1.87497044
H        1.40442425       1.57966091       0.22105373
H       -1.57512685       1.90316423       0.02005197
H       -0.54776055       1.91831438       1.45859118
H        0.07484909      -0.33778947       2.36656464
H       -0.25144890      -1.78914516       1.40457340
H       -1.57585587      -0.72204551       1.86984567
H       -0.95741227      -1.56469451      -1.06067487
H       -1.06665000       0.05170610      -1.78571582
H       -2.25115856      -0.48729053      -0.58095947
19
Frame=9 idx=006572 GeodesicLength=0.4820186714122857 rxn_smarts="[C:1]([C@@:2]1([H:11])[O:3][C:4]([H:12])([H:13])[C:5]1([C:6]([H:14])([H:15])[H:16])[C:7]([H:17])([H:18])[H:19])([H:8])([H:9])[H:10]>>[C:1]([C:2][C:5]([C:4]([O:3][H:11])([H:12])[H:13])([C:6]([H:14])([H:15])[H:16])[C:7]([H:17])([H:18])[H:19])([H:8])([H:9])[H:10]"
C        1.81206772      -0.62451003      -1.04175338
C        1.07987861       0.28038216      -0.14935459
O        0.45053930       2.07514155      -0.37019902
C       -0.62185210       1.57421414       0.42777101
C       -0.35430571       0.06637948       0.26878190
C       -0.52349453      -0.74728179       1.54267293
C       -1.20104287      -0.50612261      -0.87146841
H        2.70747519      -0.17070230      -1.46730042
H        2.16054701      -1.43335027      -0.38213239
H        1.23327317      -1.09130070      -1.84170410
H        1.40882349       1.58707925       0.21514678
H       -1.58786717       1.90593433       0.04334919
H       -0.54240343       1.91470675       1.46752730
H        0.08621596      -0.34796722       2.35514238
H       -0.24779544      -1.79241035       1.38482890
H       -1.56760846      -0.72634402       1.86639571
H       -0.96568701      -1.55355794      -1.07199327
H       -1.07152948       0.06631893      -1.79074829
H       -2.25523424      -0.47660936      -0.58496223
19
Frame=10 idx=006572 GeodesicLength=0.5351721748525657 rxn_smarts="[C:1]([C@@:2]1([H:11])[O:3][C:4]([H:12])([H:13])[C:5]1([C:6]([H:14])([H:15])[H:16])[C:7]([H:17])([H:18])[H:19])([H:8])([H:9])[H:10]>>[C:1]([C:2][C:5]([C:4]([O:3][H:11])([H:12])[H:13])([C:6]([H:14])([H:15])[H:16])[C:7]([H:17])([H:18])[H:19])([H:8])([H:9])[H:10]"
C        1.81542671      -0.63628958      -1.03052576
C        1.06955091       0.29151625      -0.17368477
O        0.43490512       2.08177920      -0.37144981
C       -0.62763058       1.57712504       0.43507598
C       -0.35676479       0.07095729       0.26301205
C       -0.51731247      -0.75149949       1.53155204
C       -1.20615606      -0.49498480      -0.87910466
H        2.69651358      -0.18186099      -1.48459424
H        2.18873318      -1.40700987      -0.33973216
H        1.24140513      -1.15072179      -1.80403691
H        1.41345121       1.59380440       0.20908359
H       -1.60013650       1.90840935       0.06676918
H       -0.53666955       1.91074962       1.47629980
H        0.09786492      -0.35841071       2.34307478
H       -0.24402571      -1.79572780       1.36445235
H       -1.55916299      -0.73087688       1.86260091
H       -0.97390186      -1.54220537      -1.08384118
H       -1.07674006       0.08118173      -1.79592197
H       -2.25935017      -0.46593559      -0.58902925
19
Frame=11 idx=006572 GeodesicLength=0.5883747302148687 rxn_smarts="[C:1]([C@@:2]1([H:11])[O:3][C:4]([H:12])([H:13])[C:5]1([C:6]([H:14])([H:15])[H:16])[C:7]([H:17])([H:18])[H:19])([H:8])([H:9])[H:10]>>[C:1]([C:2][C:5]([C:4]([O:3][H:11])([H:12])[H:13])([C:6]([H:14])([H:15])[H:16])[C:7]([H:17])([H:18])[H:19])([H:8])([H:9])[H:10]"
C        1.81847950      -0.64768145      -1.01859804
C        1.05901111       0.30243694      -0.19861622
O        0.41956087       2.08829366      -0.37252162
C       -0.63312137       1.57981886       0.44229040
C       -0.35916588       0.07543140       0.25701555
C       -0.51107162      -0.75585960       1.52007039
C       -1.21133388      -0.48385635      -0.88693280
H        2.68453972      -0.19493272      -1.50251359
H        2.21653735      -1.37753082      -0.29802176
H        1.24939587      -1.20924305      -1.76219812
H        1.41836609       1.59977046       0.20291896
H       -1.61187544       1.91055914       0.09017635
H       -0.53056465       1.90648344       1.48484116
H        0.10971610      -0.36903596       2.33048581
H       -0.24016126      -1.79908233       1.34361392
H       -1.55057807      -0.73561817       1.85852335
H       -0.98191451      -1.53071929      -1.09621306
H       -1.08234280       0.09622722      -1.80120694
H       -2.26347714      -0.45546135      -0.59311377
19
Frame=12 idx=006572 GeodesicLength=0.6416894288664721 rxn_smarts="[C:1]([C@@:2]1([H:11])[O:3][C:4]([H:12])([H:13])[C:5]1([C:6]([H:14])([H:15])[H:16])[C:7]([H:17])([H:18])[H:19])([H:8])([H:9])[H:10]>>[C:1]([C:2][C:5]([C:4]([O:3][H:11])([H:12])[H:13])([C:6]([H:14])([H:15])[H:16])[C:7]([H:17])([H:18])[H:19])([H:8])([H:9])[H:10]"
C        1.82121838      -0.65856439      -1.00600576
C        1.04828898       0.31305318      -0.22402302
O        0.40456307       2.09463166      -0.37347774
C       -0.63828786       1.58229211       0.44933959
C       -0.36149251       0.07975900       0.25082194
C       -0.50477275      -0.76035631       1.50831156
C       -1.21660021      -0.47282664      -0.89492421
H        2.67171934      -0.20999842      -1.52063017
H        2.24363081      -1.34518029      -0.25748087
H        1.25728233      -1.26613239      -1.71641946
H        1.42361878       1.60490133       0.19671138
H       -1.62305179       1.91238711       0.11341370
H       -0.52404772       1.90195472       1.49306695
H        0.12176347      -0.37979019       2.31748401
H       -0.23620349      -1.80250087       1.32247485
H       -1.54186248      -0.74053101       1.85419780
H       -0.98965717      -1.51919032      -1.10908789
H       -1.08846679       0.11142361      -1.80657283
H       -2.26764236      -0.44533189      -0.59719983
19
Frame=13 idx=006572 GeodesicLength=0.6947254011527177 rxn_smarts="[C:1]([C@@:2]1([H:11])[O:3][C:4]([H:12])([H:13])[C:5]1([C:6]([H:14])([H:15])[H:16])[C:7]([H:17])([H:18])[H:19])([H:8])([H:9])[H:10]>>[C:1]([C:2][C:5]([C:4]([O:3][H:11])([H:12])[H:13])([C:6]([H:14])([H:15])[H:16])[C:7]([H:17])([H:18])[H:19])([H:8])([H:9])[H:10]"
C        1.82359482      -0.66883115      -0.99297573
C        1.03746987       0.32325986      -0.24970662
O        0.38995517       2.10043248      -0.37438181
C       -0.64315045       1.58438402       0.45615995
C       -0.36369130       0.08390547       0.24452290
C       -0.49851676      -0.76477548       1.49636306
C       -1.22171953      -0.46202702      -0.90282910
H        2.65851953      -0.22700539      -1.53820707
H        2.26919270      -1.31081455      -0.21884080
H        1.26500181      -1.32006510      -1.66789188
H        1.42914790       1.60898450       0.19047167
H       -1.63359944       1.91367210       0.13640276
H       -0.51731606       1.89712449       1.50080434
H        0.13370735      -0.39039285       2.30408499
H       -0.23222740      -1.80568158       1.30124974
H       -1.53311446      -0.74534914       1.84969580
H       -0.99673509      -1.50760825      -1.12221469
H       -1.09494784       0.12653073      -1.81171980
H       -2.27157083      -0.43574314      -0.60098772
19
Frame=14 idx=006572 GeodesicLength=0.7478808027394875 rxn_smarts="[C:1]([C@@:2]1([H:11])[O:3][C:4]([H:12])([H:13])[C:5]1([C:6]([H:14])([H:15])[H:16])[C:7]([H:17])([H:18])[H:19])([H:8])([H:9])[H:10]>>[C:1]([C:2][C:5]([C:4]([O:3][H:11])([H:12])[H:13])([C:6]([H:14])([H:15])[H:16])[C:7]([H:17])([H:18])[H:19])([H:8])([H:9])[H:10]"
C        1.82565357      -0.67842982      -0.97943908
C        1.02655789       0.33304162      -0.27562215
O        0.37574868       2.10591022      -0.37532322
C       -0.64766129       1.58623981       0.46274584
C       -0.36578650       0.08785369       0.23810380
C       -0.49227897      -0.76927334       1.48429100
C       -1.22687286      -0.45147143      -0.91078581
H        2.64490703      -0.24593034      -1.55522604
H        2.29352378      -1.27437008      -0.18209258
H        1.27258554      -1.37118903      -1.61635290
H        1.43505332       1.61215582       0.18420072
H       -1.64355141       1.91460700       0.15910632
H       -0.51018048       1.89213000       1.50812947
H        0.14568306      -0.40099779       2.29045441
H       -0.22822969      -1.80889544       1.27998790
H       -1.52433182      -0.75023096       1.84504821
H       -1.00334674      -1.49609639      -1.13573577
H       -1.10199299       0.14166038      -1.81682484
H       -2.27548011      -0.42671393      -0.60466528
19
Frame=15 idx=006572 GeodesicLength=0.8012616237540171 rxn_smarts="[C:1]([C@@:2]1([H:11])[O:3][C:4]([H:12])([H:13])[C:5]1([C:6]([H:14])([H:15])[H:16])[C:7]([H:17])([H:18])[H:19])([H:8])([H:9])[H:10]>>[C:1]([C:2][C:5]([C:4]([O:3][H:11])([H:12])[H:13])([C:6]([H:14])([H:15])[H:16])[C:7]([H:17])([H:18])[H:19])([H:8])([H:9])[H:10]"
C        1.82738466      -0.68733562      -0.96542828
C        1.01557514       0.34237582      -0.30168080
O        0.36196716       2.11100601      -0.37633615
C       -0.65179846       1.58784228       0.46911442
C       -0.36777900       0.09159896       0.23158304
C       -0.48612677      -0.77385216       1.47210741
C       -1.23203118      -0.44114840      -0.91878624
H        2.63074583      -0.26671277      -1.57174944
H        2.31683105      -1.23584925      -0.14735931
H        1.27998642      -1.41948503      -1.56178384
H        1.44135651       1.61438861       0.17790364
H       -1.65287929       1.91517704       0.18156633
H       -0.50262335       1.88695600       1.51505870
H        0.15757567      -0.41162117       2.27662666
H       -0.22425525      -1.81212195       1.25869051
H       -1.51559045      -0.75518654       1.84023726
H       -1.00946566      -1.48462122      -1.14965230
H       -1.10953633       0.15680926      -1.82187047
H       -2.27933667      -0.41821987      -0.60824114
19
Frame=16 idx=006572 GeodesicLength=0.8549583939193807 rxn_smarts="[C:1]([C@@:2]1([H:11])[O:3][C:4]([H:12])([H:13])[C:5]1([C:6]([H:14])([H:15])[H:16])[C:7]([H:17])([H:18])[H:19])([H:8])([H:9])[H:10]>>[C:1]([C:2][C:5]([C:4]([O:3][H:11])([H:12])[H:13])([C:6]([H:14])([H:15])[H:16])[C:7]([H:17])([H:18])[H:19])([H:8])([H:9])[H:10]"
C        1.82878408      -0.69553266      -0.95095981
C        1.00453385       0.35121047      -0.32780528
O        0.34856576       2.11557873      -0.37743663
C       -0.65557334       1.58912956       0.47528389
C       -0.36966850       0.09513989       0.22497324
C       -0.48010734      -0.77846842       1.45976530
C       -1.23713075      -0.43101548      -0.92677094
H        2.61591961      -0.28937598      -1.58775538
H        2.33919807      -1.19529693      -0.11482883
H        1.28724368      -1.46483188      -1.50414116
H        1.44801014       1.61558107       0.17154681
H       -1.66158774       1.91531436       0.20386766
H       -0.49465975       1.88153398       1.52156036
H        0.16928397      -0.42225732       2.26253286
H       -0.22032127      -1.81526983       1.23729650
H       -1.50693718      -0.76014864       1.83519635
H       -1.01500018      -1.47308590      -1.16391059
H       -1.11748343       0.17198823      -1.82673993
H       -2.28306968      -0.41019327      -0.61167442
