13
Frame=0 idx=008312 GeodesicLength=0.0 rxn_smarts="[C:1]([O:2][c:3]1[c:4]([H:11])[n:5]([H:12])[c:6]([H:13])[n:7]1)([H:8])([H:9])[H:10]>>[C:1]([O:2][C:3]1=[C:4]([H:11])[N:5]([H:12])[C:6][N:7]1[H:13])([H:8])([H:9])[H:10]"
C        2.19402099       0.40733953      -0.30746721
O        1.27089538      -0.67099963      -0.29036463
C        0.00286786      -0.35421190       0.00271592
C       -1.01678833      -1.21691923       0.23905403
N       -2.12875879      -0.42814281       0.42371439
C       -1.82290205       0.88987844       0.42218295
N       -0.45044788       0.93714465       0.15154914
H        1.95000025       1.12285848      -1.09517884
H        3.16644853      -0.03894635      -0.50138939
H        2.20448130       0.92876688       0.65175110
H       -1.02631191      -2.29045146       0.31924203
H       -3.05910541      -0.77424190       0.57546839
H       -1.28439991       1.48792533      -0.59127787
13
Frame=1 idx=008312 GeodesicLength=0.05698296780125507 rxn_smarts="[C:1]([O:2][c:3]1[c:4]([H:11])[n:5]([H:12])[c:6]([H:13])[n:7]1)([H:8])([H:9])[H:10]>>[C:1]([O:2][C:3]1=[C:4]([H:11])[N:5]([H:12])[C:6][N:7]1[H:13])([H:8])([H:9])[H:10]"
C        2.20027965       0.39639844      -0.29477551
O        1.24863071      -0.65098388      -0.39265066
C       -0.00857928      -0.34146065      -0.05114535
C       -1.00265131      -1.21080139       0.25983309
N       -2.12505364      -0.43331193       0.43483932
C       -1.83550152       0.88689888       0.39474129
N       -0.47498158       0.94462785       0.08924103
H        1.98924327       1.18498506      -1.01988607
H        3.16435030      -0.05675122      -0.51325946
H        2.20881069       0.83175536       0.70650772
H       -0.98822505      -2.27824457       0.39823240
H       -3.04725969      -0.78783346       0.61369718
H       -1.32906254       1.51472150      -0.62537497
13
Frame=2 idx=008312 GeodesicLength=0.11436160431426376 rxn_smarts="[C:1]([O:2][c:3]1[c:4]([H:11])[n:5]([H:12])[c:6]([H:13])[n:7]1)([H:8])([H:9])[H:10]>>[C:1]([O:2][C:3]1=[C:4]([H:11])[N:5]([H:12])[C:6][N:7]1[H:13])([H:8])([H:9])[H:10]"
C        2.20393818       0.38260467      -0.28207528
O        1.22816792      -0.62584599      -0.48377454
C       -0.02020016      -0.32766847      -0.10332693
C       -0.98571044      -1.20217486       0.27658896
N       -2.11933098      -0.43833317       0.44548922
C       -1.84914340       0.88333550       0.36640585
N       -0.50103266       0.95252176       0.02841100
H        2.02319481       1.23450108      -0.94083816
H        3.16018961      -0.07429667      -0.52576461
H        2.20882391       0.73317845       0.75202081
H       -0.94291113      -2.25971231       0.47238899
H       -3.03234198      -0.80196549       0.65065293
H       -1.37364368       1.54385551      -0.65617825
13
Frame=3 idx=008312 GeodesicLength=0.17196192432812885 rxn_smarts="[C:1]([O:2][c:3]1[c:4]([H:11])[n:5]([H:12])[c:6]([H:13])[n:7]1)([H:8])([H:9])[H:10]>>[C:1]([O:2][C:3]1=[C:4]([H:11])[N:5]([H:12])[C:6][N:7]1[H:13])([H:8])([H:9])[H:10]"
C        2.20551152       0.36704028      -0.26990682
O        1.21016469      -0.59802403      -0.56271202
C       -0.03136773      -0.31384885      -0.15138159
C       -0.96730180      -1.19207675       0.28989284
N       -2.11243245      -0.44321888       0.45485880
C       -1.86379732       0.87888899       0.33670797
N       -0.52784452       0.95989896      -0.02941821
H        2.05087194       1.27242431      -0.86060195
H        3.15477538      -0.08991264      -0.53955150
H        2.20643466       0.63567547       0.78851410
H       -0.89335799      -2.23585028       0.54167372
H       -3.01562260      -0.81605111       0.68501872
H       -1.41603379       1.57505454      -0.68309406
13
Frame=4 idx=008312 GeodesicLength=0.2293148806124576 rxn_smarts="[C:1]([O:2][c:3]1[c:4]([H:11])[n:5]([H:12])[c:6]([H:13])[n:7]1)([H:8])([H:9])[H:10]>>[C:1]([O:2][C:3]1=[C:4]([H:11])[N:5]([H:12])[C:6][N:7]1[H:13])([H:8])([H:9])[H:10]"
C        2.20572452       0.35080393      -0.25915812
O        1.19461577      -0.56948132      -0.62882091
C       -0.04125200      -0.30063881      -0.19177476
C       -0.94840501      -1.18124131       0.30229250
N       -2.10551094      -0.44827978       0.46166217
C       -1.87967762       0.87305148       0.30522660
N       -0.55467002       0.96605790      -0.08205634
H        2.07205958       1.30014938      -0.78220129
H        3.14867598      -0.10245558      -0.55585562
H        2.20453441       0.54205643       0.81601997
H       -0.84308095      -2.20821506       0.60616290
H       -2.99892455      -0.83010410       0.71358756
H       -1.45408917       1.60829684      -0.70508465
13
Frame=5 idx=008312 GeodesicLength=0.28588249797763227 rxn_smarts="[C:1]([O:2][c:3]1[c:4]([H:11])[n:5]([H:12])[c:6]([H:13])[n:7]1)([H:8])([H:9])[H:10]>>[C:1]([O:2][C:3]1=[C:4]([H:11])[N:5]([H:12])[C:6][N:7]1[H:13])([H:8])([H:9])[H:10]"
C        2.20547693       0.33468517      -0.25007547
O        1.18141617      -0.54168367      -0.68305045
C       -0.04947632      -0.28833349      -0.22394575
C       -0.92987995      -1.17019760       0.31473037
N       -2.09916243      -0.45361666       0.46658594
C       -1.89683796       0.86555039       0.27187628
N       -0.58111255       0.97063582      -0.12956117
H        2.08779942       1.31931279      -0.70781916
H        3.14270941      -0.11163153      -0.57422470
H        2.20453940       0.45413313       0.83551629
H       -0.79447448      -2.17826927       0.66596107
H       -2.98361967      -0.84421516       0.73561618
H       -1.48737796       1.64363007      -0.72160943
13
Frame=6 idx=008312 GeodesicLength=0.3417606255713789 rxn_smarts="[C:1]([O:2][c:3]1[c:4]([H:11])[n:5]([H:12])[c:6]([H:13])[n:7]1)([H:8])([H:9])[H:10]>>[C:1]([O:2][C:3]1=[C:4]([H:11])[N:5]([H:12])[C:6][N:7]1[H:13])([H:8])([H:9])[H:10]"
C        2.20510423       0.31883669      -0.24230671
O        1.17009386      -0.51503045      -0.72803339
C       -0.05625624      -0.27689731      -0.24969205
C       -0.91184548      -1.15891368       0.32766033
N       -2.09336301      -0.45917910       0.47015346
C       -1.91528971       0.85610789       0.23571594
N       -0.60730319       0.97349495      -0.17386022
H        2.09919484       1.33194345      -0.63655944
H        3.13708347      -0.11736908      -0.59419573
H        2.20654701       0.37050010       0.84870215
H       -0.74794250      -2.14634418       0.72234123
H       -2.96950868      -0.85831773       0.75299914
H       -1.51651460       1.68116846      -0.73292470
13
Frame=7 idx=008312 GeodesicLength=0.3969389320175711 rxn_smarts="[C:1]([O:2][c:3]1[c:4]([H:11])[n:5]([H:12])[c:6]([H:13])[n:7]1)([H:8])([H:9])[H:10]>>[C:1]([O:2][C:3]1=[C:4]([H:11])[N:5]([H:12])[C:6][N:7]1[H:13])([H:8])([H:9])[H:10]"
C        2.20487489       0.30349131      -0.23550004
O        1.16048928      -0.48984015      -0.76538728
C       -0.06169455      -0.26633872      -0.27019118
C       -0.89428186      -1.14723031       0.34170924
N       -2.08800278      -0.46475423       0.47322230
C       -1.93513529       0.84438266       0.19560197
N       -0.63339282       0.97444582      -0.21674947
H        2.10745223       1.33928967      -0.56844126
H        3.13208024      -0.11988229      -0.61465495
H        2.21035246       0.29131848       0.85674527
H       -0.70455031      -2.11381423       0.77429923
H       -2.95620997      -0.87203542       0.76829505
H       -1.54198152       1.72096741      -0.73894886
13
Frame=8 idx=008312 GeodesicLength=0.45144914511869083 rxn_smarts="[C:1]([O:2][c:3]1[c:4]([H:11])[n:5]([H:12])[c:6]([H:13])[n:7]1)([H:8])([H:9])[H:10]>>[C:1]([O:2][C:3]1=[C:4]([H:11])[N:5]([H:12])[C:6][N:7]1[H:13])([H:8])([H:9])[H:10]"
C        2.20477900       0.28872121      -0.22928530
O        1.15248307      -0.46630693      -0.79664509
C       -0.06600078      -0.25674217      -0.28696340
C       -0.87713009      -1.13493611       0.35691945
N       -2.08284662      -0.47004571       0.47631159
C       -1.95646506       0.82973151       0.14989171
N       -0.65960731       0.97310448      -0.26028233
H        2.11313619       1.34234277      -0.50292404
H        3.12775041      -0.11926109      -0.63476219
H        2.21543411       0.21611434       0.86067342
H       -0.66442483      -2.08136080       0.82188887
H       -2.94308975      -0.88472892       0.78380611
H       -1.56401834       1.76336742      -0.73862881
13
Frame=9 idx=008312 GeodesicLength=0.5053412976884123 rxn_smarts="[C:1]([O:2][c:3]1[c:4]([H:11])[n:5]([H:12])[c:6]([H:13])[n:7]1)([H:8])([H:9])[H:10]>>[C:1]([O:2][C:3]1=[C:4]([H:11])[N:5]([H:12])[C:6][N:7]1[H:13])([H:8])([H:9])[H:10]"
C        2.20464989       0.27447781      -0.22313624
O        1.14616840      -0.44460567      -0.82339690
C       -0.06941853      -0.24836594      -0.30208550
C       -0.86038163      -1.12192909       0.37246749
N       -2.07765632      -0.47472193       0.47927425
C       -1.97958429       0.81093780       0.09563267
N       -0.68630592       0.96878635      -0.30728052
H        2.11595383       1.34191574      -0.43829328
H        3.12419086      -0.11493982      -0.65389252
H        2.22105020       0.14333281       0.86137463
H       -0.62703636      -2.04874778       0.86586067
H       -2.92905218      -0.89488818       0.80323845
H       -1.58257795       1.80874789      -0.72976320
13
Frame=10 idx=008312 GeodesicLength=0.5582150417360526 rxn_smarts="[C:1]([O:2][c:3]1[c:4]([H:11])[n:5]([H:12])[c:6]([H:13])[n:7]1)([H:8])([H:9])[H:10]>>[C:1]([O:2][C:3]1=[C:4]([H:11])[N:5]([H:12])[C:6][N:7]1[H:13])([H:8])([H:9])[H:10]"
C        2.20431395       0.26093793      -0.21685053
O        1.14183879      -0.42531157      -0.84656206
C       -0.07199155      -0.24169207      -0.31698414
C       -0.84408602      -1.10802537       0.38800709
N       -2.07204202      -0.47783045       0.48260845
C       -2.00421834       0.78670061       0.03079441
N       -0.71375245       0.96032785      -0.36109665
H        2.11563087       1.33843432      -0.37468756
H        3.12157817      -0.10671200      -0.67097451
H        2.22642784       0.07338314       0.85935475
H       -0.59242121      -2.01591058       0.90665576
H       -2.91379740      -0.90069289       0.82732798
H       -1.59748062       1.85639108      -0.70759300
13
Frame=11 idx=008312 GeodesicLength=0.6088915191744081 rxn_smarts="[C:1]([O:2][c:3]1[c:4]([H:11])[n:5]([H:12])[c:6]([H:13])[n:7]1)([H:8])([H:9])[H:10]>>[C:1]([O:2][C:3]1=[C:4]([H:11])[N:5]([H:12])[C:6][N:7]1[H:13])([H:8])([H:9])[H:10]"
C        2.20365585       0.24875936      -0.21048852
O        1.13994060      -0.40977285      -0.86609902
C       -0.07357402      -0.23732664      -0.33229473
C       -0.82865427      -1.09283437       0.40353110
N       -2.06611443      -0.47809665       0.48551858
C       -2.02893439       0.75691356      -0.04356782
N       -0.74194245       0.94598328      -0.42565390
H        2.11143683       1.33261981      -0.31409884
H        3.12013928      -0.09430085      -0.68499450
H        2.23135067       0.00871110       0.85523721
H       -0.56194208      -1.98335100       0.94399624
H       -2.89787571      -0.89976393       0.85486460
H       -1.60748589       1.90245919      -0.66595040
13
Frame=12 idx=008312 GeodesicLength=0.6571915274179916 rxn_smarts="[C:1]([O:2][c:3]1[c:4]([H:11])[n:5]([H:12])[c:6]([H:13])[n:7]1)([H:8])([H:9])[H:10]>>[C:1]([O:2][C:3]1=[C:4]([H:11])[N:5]([H:12])[C:6][N:7]1[H:13])([H:8])([H:9])[H:10]"
C        2.20223790       0.23869130      -0.20406659
O        1.14024048      -0.39803562      -0.88254415
C       -0.07453416      -0.23499974      -0.34876439
C       -0.81474443      -1.07608880       0.41793258
N       -2.06057382      -0.47509719       0.48586580
C       -2.05094842       0.72526370      -0.11838969
N       -0.77037992       0.92509074      -0.50138196
H        2.10282358       1.32561752      -0.25765967
H        3.11948191      -0.07752971      -0.69543935
H        2.23535020      -0.04907388       0.84975357
H       -0.53659350      -1.95122674       0.97706653
H       -2.88211100      -0.89036087       0.88397798
H       -1.61024882       1.93774928      -0.60635066
13
Frame=13 idx=008312 GeodesicLength=0.7063645781414561 rxn_smarts="[C:1]([O:2][c:3]1[c:4]([H:11])[n:5]([H:12])[c:6]([H:13])[n:7]1)([H:8])([H:9])[H:10]>>[C:1]([O:2][C:3]1=[C:4]([H:11])[N:5]([H:12])[C:6][N:7]1[H:13])([H:8])([H:9])[H:10]"
C        2.20000604       0.23051573      -0.19733223
O        1.14122824      -0.38663066      -0.89761200
C       -0.07565608      -0.23242099      -0.36597052
C       -0.80278169      -1.05857180       0.42884127
N       -2.05592671      -0.46983426       0.48359630
C       -2.07018785       0.69508757      -0.18661904
N       -0.79834302       0.90079794      -0.57952839
H        2.09118513       1.31794991      -0.20234742
H        3.11871084      -0.05696940      -0.70341559
H        2.23886628      -0.10308091       0.84282732
H       -0.51507377      -1.91941170       1.00477843
H       -2.86625770      -0.87275215       0.91569189
H       -1.60576973       1.95532071      -0.54291003
13
Frame=14 idx=008312 GeodesicLength=0.7575606853801532 rxn_smarts="[C:1]([O:2][c:3]1[c:4]([H:11])[n:5]([H:12])[c:6]([H:13])[n:7]1)([H:8])([H:9])[H:10]>>[C:1]([O:2][C:3]1=[C:4]([H:11])[N:5]([H:12])[C:6][N:7]1[H:13])([H:8])([H:9])[H:10]"
C        2.19841090       0.22264496      -0.19117550
O        1.14091862      -0.37214575      -0.91151814
C       -0.07681314      -0.22600297      -0.37946097
C       -0.79194659      -1.03952687       0.43885224
N       -2.05261927      -0.46412183       0.48001122
C       -2.08751985       0.66807952      -0.24390557
N       -0.82478833       0.87868175      -0.64768002
H        2.08079331       1.30836006      -0.14641736
H        3.11720843      -0.03557010      -0.71264058
H        2.24515017      -0.15729411       0.83277064
H       -0.49536834      -1.88677596       1.02992584
H       -2.85242883      -0.85405623       0.94236478
H       -1.60099706       1.95772752      -0.49112658
13
Frame=15 idx=008312 GeodesicLength=0.809730404115657 rxn_smarts="[C:1]([O:2][c:3]1[c:4]([H:11])[n:5]([H:12])[c:6]([H:13])[n:7]1)([H:8])([H:9])[H:10]>>[C:1]([O:2][C:3]1=[C:4]([H:11])[N:5]([H:12])[C:6][N:7]1[H:13])([H:8])([H:9])[H:10]"
C        2.19794537       0.21453782      -0.18531100
O        1.13958470      -0.35441185      -0.92412602
C       -0.07775747      -0.21577082      -0.38905087
C       -0.78165361      -1.01920123       0.44877669
N       -2.05046505      -0.45913871       0.47538312
C       -2.10384148       0.64254269      -0.29372249
N       -0.84960805       0.85950880      -0.70526031
H        2.07280260       1.29618232      -0.08905098
H        3.11540164      -0.01375344      -0.72284984
H        2.25432316      -0.21260817       0.81949404
H       -0.47716621      -1.85501100       1.05164995
H       -2.83955326      -0.83433517       0.96712859
H       -1.60001235       1.95145877      -0.45306089
13
Frame=16 idx=008312 GeodesicLength=0.8618491227877515 rxn_smarts="[C:1]([O:2][c:3]1[c:4]([H:11])[n:5]([H:12])[c:6]([H:13])[n:7]1)([H:8])([H:9])[H:10]>>[C:1]([O:2][C:3]1=[C:4]([H:11])[N:5]([H:12])[C:6][N:7]1[H:13])([H:8])([H:9])[H:10]"
C        2.19854057       0.20671572      -0.17951845
O        1.13777939      -0.33475110      -0.93450895
C       -0.07832362      -0.20262509      -0.39479299
C       -0.77129204      -0.99689890       0.46076559
N       -2.04854015      -0.45374950       0.47236378
C       -2.11917014       0.61766693      -0.33767087
N       -0.87318437       0.84167099      -0.75558224
H        2.06721640       1.28206875      -0.03272117
H        3.11366434       0.00785166      -0.73251563
H        2.26542402      -0.26602180       0.80412869
H       -0.46212215      -1.82921374       1.06572935
H       -2.82725212      -0.81335316       0.99131908
H       -1.60274013       1.94063924      -0.42699621
