11
Frame=0 idx=001459 GeodesicLength=0.0 rxn_smarts="[C:1]([C@@:2]1([H:10])[O:3][C@:4]1([C:5]#[N:6])[H:11])([H:7])([H:8])[H:9]>>[C:1]([C@@:2]([O:3][H:11])([C+:4]=[C:5]=[N-:6])[H:10])([H:7])([H:8])[H:9]"
C       -1.27296845      -0.34740489      -0.01193876
C       -0.24246648       0.73310878       0.11037201
O        0.59741955       0.57027566       1.28106864
C        1.14934612       0.55561178      -0.34308685
C        1.56663358      -0.76109622      -0.69611526
N        1.97153609      -1.77405661      -1.06542337
H       -2.06624984      -0.19693682       0.72051868
H       -1.71837152      -0.31080666      -1.00758286
H       -0.83086962      -1.33244512       0.13578507
H       -0.63913834       1.74309743       0.02932207
H        1.48512894       1.12065271       0.84708059
11
Frame=1 idx=001459 GeodesicLength=0.040291703225867795 rxn_smarts="[C:1]([C@@:2]1([H:10])[O:3][C@:4]1([C:5]#[N:6])[H:11])([H:7])([H:8])[H:9]>>[C:1]([C@@:2]([O:3][H:11])([C+:4]=[C:5]=[N-:6])[H:10])([H:7])([H:8])[H:9]"
C       -1.27537621      -0.34812205      -0.01297132
C       -0.24410591       0.73137336       0.11037501
O        0.60040832       0.56694965       1.27713771
C        1.14862700       0.55326431      -0.33825392
C        1.56764205      -0.76246960      -0.69417303
N        1.97209406      -1.77502824      -1.06488414
H       -2.06785078      -0.19864647       0.72062172
H       -1.72170609      -0.30918336      -1.00813053
H       -0.83388191      -1.33380171       0.13226638
H       -0.63880792       1.74227320       0.03101804
H        1.49295741       1.13339092       0.84699408
11
Frame=2 idx=001459 GeodesicLength=0.08057609153759131 rxn_smarts="[C:1]([C@@:2]1([H:10])[O:3][C@:4]1([C:5]#[N:6])[H:11])([H:7])([H:8])[H:9]>>[C:1]([C@@:2]([O:3][H:11])([C+:4]=[C:5]=[N-:6])[H:10])([H:7])([H:8])[H:9]"
C       -1.27776430      -0.34884823      -0.01399712
C       -0.24573967       0.72963995       0.11039344
O        0.60331399       0.56371658       1.27328013
C        1.14792396       0.55096018      -0.33337967
C        1.56862992      -0.76378595      -0.69227561
N        1.97257324      -1.77597448      -1.06436120
H       -2.06946825      -0.20035410       0.72068597
H       -1.72496780      -0.30761217      -1.00869036
H       -0.83685505      -1.33514400       0.12880891
H       -0.63848323       1.74143762       0.03268971
H        1.50083718       1.14596462       0.84684580
11
Frame=3 idx=001459 GeodesicLength=0.1208526466421723 rxn_smarts="[C:1]([C@@:2]1([H:10])[O:3][C@:4]1([C:5]#[N:6])[H:11])([H:7])([H:8])[H:9]>>[C:1]([C@@:2]([O:3][H:11])([C+:4]=[C:5]=[N-:6])[H:10])([H:7])([H:8])[H:9]"
C       -1.28013450      -0.34958315      -0.01501647
C       -0.24736882       0.72790762       0.11042938
O        0.60613556       0.56056675       1.26949786
C        1.14723339       0.54869718      -0.32846583
C        1.56959595      -0.76504750      -0.69041794
N        1.97297881      -1.77689187      -1.06385789
H       -2.07110646      -0.20205571       0.72070765
H       -1.72815396      -0.30609527      -1.00926515
H       -0.83979258      -1.33647217       0.12541708
H       -0.63816438       1.74059040       0.03434187
H        1.50877697       1.15838373       0.84662945
11
Frame=4 idx=001459 GeodesicLength=0.16112705431444424 rxn_smarts="[C:1]([C@@:2]1([H:10])[O:3][C@:4]1([C:5]#[N:6])[H:11])([H:7])([H:8])[H:9]>>[C:1]([C@@:2]([O:3][H:11])([C+:4]=[C:5]=[N-:6])[H:10])([H:7])([H:8])[H:9]"
C       -1.28249065      -0.35032717      -0.01603148
C       -0.24899326       0.72617581       0.11048407
O        0.60887386       0.55749557       1.26579289
C        1.14655591       0.54647378      -0.32351511
C        1.57054812      -0.76625911      -0.68858943
N        1.97331752      -1.77778631      -1.06336612
H       -2.07276420      -0.20376062       0.72069585
H       -1.73128170      -0.30462033      -1.00985173
H       -0.84269951      -1.33779140       0.12206751
H       -0.63785148       1.73973238       0.03597714
H        1.51678539       1.17066742       0.84633640
11
Frame=5 idx=001459 GeodesicLength=0.20139172575436737 rxn_smarts="[C:1]([C@@:2]1([H:10])[O:3][C@:4]1([C:5]#[N:6])[H:11])([H:7])([H:8])[H:9]>>[C:1]([C@@:2]([O:3][H:11])([C+:4]=[C:5]=[N-:6])[H:10])([H:7])([H:8])[H:9]"
C       -1.28483152      -0.35107842      -0.01704350
C       -0.25061397       0.72444066       0.11055903
O        0.61153139       0.55449077       1.26216269
C        1.14588478       0.54428605      -0.31852884
C        1.57148495      -0.76742123      -0.68678185
N        1.97359274      -1.77865585      -1.06287455
H       -2.07443460      -0.20547305       0.72065039
H       -1.73435649      -0.30317401      -1.01044667
H       -0.84557586      -1.33910053       0.11874988
H       -0.63754543       1.73885881       0.03759945
H        1.52486401       1.18282681       0.84595399
11
Frame=6 idx=001459 GeodesicLength=0.24165062089663134 rxn_smarts="[C:1]([C@@:2]1([H:10])[O:3][C@:4]1([C:5]#[N:6])[H:11])([H:7])([H:8])[H:9]>>[C:1]([C@@:2]([O:3][H:11])([C+:4]=[C:5]=[N-:6])[H:10])([H:7])([H:8])[H:9]"
C       -1.28716086      -0.35183631      -0.01805722
C       -0.25223222       0.72269988       0.11065183
O        0.61410783       0.55154617       1.25860563
C        1.14521607       0.54213029      -0.31351149
C        1.57240659      -0.76853633      -0.68499416
N        1.97381811      -1.77950113      -1.06236492
H       -2.07611341      -0.20719664       0.72057689
H       -1.73739007      -0.30174431      -1.01105121
H       -0.84842492      -1.34039898       0.11545184
H       -0.63724999       1.73796681       0.03922357
H        1.53302288       1.19487056       0.84546923
11
Frame=7 idx=001459 GeodesicLength=0.2819099871640372 rxn_smarts="[C:1]([C@@:2]1([H:10])[O:3][C@:4]1([C:5]#[N:6])[H:11])([H:7])([H:8])[H:9]>>[C:1]([C@@:2]([O:3][H:11])([C+:4]=[C:5]=[N-:6])[H:10])([H:7])([H:8])[H:9]"
C       -1.28947949      -0.35260476      -0.01907528
C       -0.25384721       0.72095444       0.11076767
O        0.61660412       0.54866240       1.25512810
C        1.14455449       0.54000828      -0.30846124
C        1.57332537      -0.76960811      -0.68321209
N        1.97397583      -1.78033490      -1.06184608
H       -2.07780343      -0.20894139       0.72047726
H       -1.74038248      -0.30032735      -1.01166895
H       -0.85124886      -1.34169523       0.11216157
H       -0.63696456       1.73706009       0.04085370
H        1.54126623       1.20682652       0.84487534
11
Frame=8 idx=001459 GeodesicLength=0.32216809498690435 rxn_smarts="[C:1]([C@@:2]1([H:10])[O:3][C@:4]1([C:5]#[N:6])[H:11])([H:7])([H:8])[H:9]>>[C:1]([C@@:2]([O:3][H:11])([C+:4]=[C:5]=[N-:6])[H:10])([H:7])([H:8])[H:9]"
C       -1.29177895      -0.35338704      -0.02010108
C       -0.25545751       0.71920325       0.11091006
O        0.61902101       0.54583790       1.25173470
C        1.14390032       0.53792296      -0.30337172
C        1.57425250      -0.77063028      -0.68141934
N        1.97401561      -1.78116321      -1.06132697
H       -2.07950062      -0.21071539       0.72034166
H       -1.74332131      -0.29892724      -1.01230478
H       -0.85403681      -1.34299021       0.10887821
H       -0.63669141       1.73613507       0.04249228
H        1.54959716       1.21871420       0.84416696
11
Frame=9 idx=001459 GeodesicLength=0.36242660961315143 rxn_smarts="[C:1]([C@@:2]1([H:10])[O:3][C@:4]1([C:5]#[N:6])[H:11])([H:7])([H:8])[H:9]>>[C:1]([C@@:2]([O:3][H:11])([C+:4]=[C:5]=[N-:6])[H:10])([H:7])([H:8])[H:9]"
C       -1.29406507      -0.35418127      -0.02113451
C       -0.25706411       0.71744347       0.11108140
O        0.62136053       0.54306342       1.24842620
C        1.14325085       0.53586872      -0.29824433
C        1.57518235      -0.77161071      -0.67961343
N        1.97396596      -1.78198167      -1.06080159
H       -2.08120903      -0.21251961       0.72017299
H       -1.74621573      -0.29753318      -1.01295697
H       -0.85679859      -1.34428483       0.10559484
H       -0.63642741       1.73519101       0.04414450
H        1.55802025       1.23054466       0.84333088
11
Frame=10 idx=001459 GeodesicLength=0.4026918640752842 rxn_smarts="[C:1]([C@@:2]1([H:10])[O:3][C@:4]1([C:5]#[N:6])[H:11])([H:7])([H:8])[H:9]>>[C:1]([C@@:2]([O:3][H:11])([C+:4]=[C:5]=[N-:6])[H:10])([H:7])([H:8])[H:9]"
C       -1.29634286      -0.35498476      -0.02217733
C       -0.25866859       0.71567236       0.11128422
O        0.62362613       0.54032877       1.24520035
C        1.14260182       0.53384128      -0.29308319
C        1.57611170      -0.77255317      -0.67779357
N        1.97385331      -1.78279069      -1.06024639
H       -2.08292720      -0.21436151       0.71997772
H       -1.74908258      -0.29612688      -1.01362046
H       -0.85954187      -1.34558010       0.10228957
H       -0.63617233       1.73422627       0.04582086
H        1.56654246       1.24232843       0.84234823
11
Frame=11 idx=001459 GeodesicLength=0.4429556931895663 rxn_smarts="[C:1]([C@@:2]1([H:10])[O:3][C@:4]1([C:5]#[N:6])[H:11])([H:7])([H:8])[H:9]>>[C:1]([C@@:2]([O:3][H:11])([C+:4]=[C:5]=[N-:6])[H:10])([H:7])([H:8])[H:9]"
C       -1.29861896      -0.35579475      -0.02323083
C       -0.26027238       0.71388799       0.11151988
O        0.62582105       0.53762592       1.24205602
C        1.14194918       0.53183646      -0.28789322
C        1.57703513      -0.77346398      -0.67596312
N        1.97371494      -1.78359019      -1.05963656
H       -2.08465362      -0.21624697       0.71976591
H       -1.75194334      -0.29468973      -1.01428941
H       -0.86227544      -1.34687679       0.09893887
H       -0.63592469       1.73324100       0.04753010
H        1.57516813       1.25407105       0.84120237
11
Frame=12 idx=001459 GeodesicLength=0.48322689531577495 rxn_smarts="[C:1]([C@@:2]1([H:10])[O:3][C@:4]1([C:5]#[N:6])[H:11])([H:7])([H:8])[H:9]>>[C:1]([C@@:2]([O:3][H:11])([C+:4]=[C:5]=[N-:6])[H:10])([H:7])([H:8])[H:9]"
C       -1.30089471      -0.35661032      -0.02429725
C       -0.26187633       0.71208904       0.11179211
O        0.62794504       0.53494911       1.23899508
C        1.14129124       0.52985032      -0.28267274
C        1.57795566      -0.77434657      -0.67411335
N        1.97355028      -1.78438130      -1.05897285
H       -2.08638770      -0.21818228       0.71953733
H       -1.75479846      -0.29321611      -1.01496502
H       -0.86500353      -1.34817545       0.09553713
H       -0.63568274       1.73223486       0.04927753
H        1.58390127       1.26578869       0.83988202
11
Frame=13 idx=001459 GeodesicLength=0.5235037482067875 rxn_smarts="[C:1]([C@@:2]1([H:10])[O:3][C@:4]1([C:5]#[N:6])[H:11])([H:7])([H:8])[H:9]>>[C:1]([C@@:2]([O:3][H:11])([C+:4]=[C:5]=[N-:6])[H:10])([H:7])([H:8])[H:9]"
C       -1.30317036      -0.35743235      -0.02537697
C       -0.26348069       0.71027438       0.11210286
O        0.62999709       0.53229107       1.23602093
C        1.14062750       0.52788350      -0.27741880
C        1.57887239      -0.77520001      -0.67224221
N        1.97336029      -1.78516351      -1.05825214
H       -2.08813240      -0.22016520       0.71928873
H       -1.75764799      -0.29170478      -1.01564807
H       -0.86772542      -1.34947646       0.09208159
H       -0.63544866       1.73120619       0.05106880
H        1.59274824       1.27748716       0.83837528
11
Frame=14 idx=001459 GeodesicLength=0.563784079786053 rxn_smarts="[C:1]([C@@:2]1([H:10])[O:3][C@:4]1([C:5]#[N:6])[H:11])([H:7])([H:8])[H:9]>>[C:1]([C@@:2]([O:3][H:11])([C+:4]=[C:5]=[N-:6])[H:10])([H:7])([H:8])[H:9]"
C       -1.30544653      -0.35826108      -0.02647018
C       -0.26508638       0.70844392       0.11245537
O        0.63197548       0.52964545       1.23313734
C        1.13995722       0.52593490      -0.27212765
C        1.57978489      -0.77602512      -0.67034662
N        1.97314376      -1.78593367      -1.05748149
H       -2.08989334      -0.22219138       0.71901373
H       -1.76048416      -0.29016138      -1.01634240
H       -0.87044272      -1.35077955       0.08857973
H       -0.63522269       1.73015535       0.05290893
H        1.60171447       1.28917257       0.83667324
11
Frame=15 idx=001459 GeodesicLength=0.6040667560573978 rxn_smarts="[C:1]([C@@:2]1([H:10])[O:3][C@:4]1([C:5]#[N:6])[H:11])([H:7])([H:8])[H:9]>>[C:1]([C@@:2]([O:3][H:11])([C+:4]=[C:5]=[N-:6])[H:10])([H:7])([H:8])[H:9]"
C       -1.30772321      -0.35909676      -0.02757702
C       -0.26669408       0.70659744       0.11285286
O        0.63387784       0.52700547       1.23034846
C        1.13927950       0.52400370      -0.26679500
C        1.58069231      -0.77682208      -0.66842328
N        1.97289760      -1.78668873      -1.05666850
H       -2.09167558      -0.22425667       0.71870579
H       -1.76329839      -0.28859157      -1.01705221
H       -0.87315619      -1.35208416       0.08503963
H       -0.63500505       1.72908222       0.05480209
H        1.61080525       1.30085115       0.83476718
11
Frame=16 idx=001459 GeodesicLength=0.6443499150237395 rxn_smarts="[C:1]([C@@:2]1([H:10])[O:3][C@:4]1([C:5]#[N:6])[H:11])([H:7])([H:8])[H:9]>>[C:1]([C@@:2]([O:3][H:11])([C+:4]=[C:5]=[N-:6])[H:10])([H:7])([H:8])[H:9]"
C       -1.31000073      -0.35993953      -0.02869770
C       -0.26830461       0.70473481       0.11329864
O        0.63570203       0.52436398       1.22765828
C        1.13859339       0.52208919      -0.26141674
C        1.58159339      -0.77759068      -0.66647049
N        1.97262060      -1.78742568      -1.05581871
H       -2.09348439      -0.22635687       0.71835866
H       -1.76608266      -0.28700057      -1.01778166
H       -0.87586692      -1.35338978       0.08146890
H       -0.63479605       1.72798688       0.05675333
H        1.62002596       1.31252825       0.83264749
