10
Frame=0 idx=004102 GeodesicLength=0.0 rxn_smarts="[C:1]([c:2]1[c:3]([H:10])[n:4][n:5][o:6]1)([H:7])([H:8])[H:9]>>[C:1]([C:2]([N-:5][N+:4]#[C:3][H:10])=[O:6])([H:7])([H:8])[H:9]"
C       -1.23491017      -0.40194400      -0.17893783
C       -0.04568048      -0.51067917       0.68053218
C        1.03098719       1.43803214      -0.13135554
N        1.37945307       0.32375266      -0.58384573
N        1.34463405      -0.78935278      -0.94950103
O        0.39904370      -0.83983563       1.68087841
H       -1.56762168      -1.41722350      -0.40086483
H       -1.01503241       0.14809358      -1.08523147
H       -1.99453247       0.12232298       0.40227120
H        1.70365919       1.92683374       0.56605464
10
Frame=1 idx=004102 GeodesicLength=0.10898611582806358 rxn_smarts="[C:1]([c:2]1[c:3]([H:10])[n:4][n:5][o:6]1)([H:7])([H:8])[H:9]>>[C:1]([C:2]([N-:5][N+:4]#[C:3][H:10])=[O:6])([H:7])([H:8])[H:9]"
C       -1.24414860      -0.39613709      -0.17918842
C       -0.04487480      -0.49132748       0.66853743
C        1.02351421       1.43373016      -0.11608128
N        1.39850085       0.33624281      -0.58662900
N        1.36604561      -0.79991318      -0.89000504
O        0.42839009      -0.91624299       1.62579024
H       -1.59933180      -1.41079620      -0.36493384
H       -1.02766369       0.11816435      -1.10762241
H       -1.98698483       0.16113581       0.39290369
H        1.68655295       1.96514381       0.55722862
10
Frame=2 idx=004102 GeodesicLength=0.21791416332843494 rxn_smarts="[C:1]([c:2]1[c:3]([H:10])[n:4][n:5][o:6]1)([H:7])([H:8])[H:9]>>[C:1]([C:2]([N-:5][N+:4]#[C:3][H:10])=[O:6])([H:7])([H:8])[H:9]"
C       -1.25178735      -0.39107324      -0.17827466
C       -0.04160180      -0.47648974       0.65626515
C        1.01789518       1.42775778      -0.10104222
N        1.41862352       0.34725827      -0.58846831
N        1.38665324      -0.80706807      -0.83530096
O        0.45145680      -0.98560511       1.56917736
H       -1.63078764      -1.40279719      -0.32798429
H       -1.04021125       0.08705906      -1.12745173
H       -1.97650808       0.19944561       0.38350619
H        1.66626739       2.00151263       0.54957347
10
Frame=3 idx=004102 GeodesicLength=0.32678545665902936 rxn_smarts="[C:1]([c:2]1[c:3]([H:10])[n:4][n:5][o:6]1)([H:7])([H:8])[H:9]>>[C:1]([C:2]([N-:5][N+:4]#[C:3][H:10])=[O:6])([H:7])([H:8])[H:9]"
C       -1.25835940      -0.38659316      -0.17668120
C       -0.03653925      -0.46574970       0.64339536
C        1.01389288       1.42028924      -0.08574113
N        1.43980817       0.35714155      -0.58921543
N        1.40681586      -0.81158426      -0.78487362
O        0.46994133      -1.04873506       1.51229640
H       -1.66209170      -1.39317072      -0.29038048
H       -1.05312861       0.05519094      -1.14520918
H       -1.96374723       0.23693208       0.37387470
H        1.64340797       2.03627907       0.54253459
10
Frame=4 idx=004102 GeodesicLength=0.43569030518350466 rxn_smarts="[C:1]([c:2]1[c:3]([H:10])[n:4][n:5][o:6]1)([H:7])([H:8])[H:9]>>[C:1]([C:2]([N-:5][N+:4]#[C:3][H:10])=[O:6])([H:7])([H:8])[H:9]"
C       -1.26409495      -0.38250628      -0.17466236
C       -0.03020012      -0.45840182       0.62983713
C        1.01132582       1.41145386      -0.06961855
N        1.46199315       0.36613092      -0.58843853
N        1.42656595      -0.81406028      -0.73808837
O        0.48483178      -1.10719627       1.45530454
H       -1.69311301      -1.38179841      -0.25212261
H       -1.06657507       0.02266632      -1.16115734
H       -1.94898726       0.27357601       0.36373588
H        1.61825372       2.07013595       0.53521022
10
Frame=5 idx=004102 GeodesicLength=0.5444794836803724 rxn_smarts="[C:1]([c:2]1[c:3]([H:10])[n:4][n:5][o:6]1)([H:7])([H:8])[H:9]>>[C:1]([C:2]([N-:5][N+:4]#[C:3][H:10])=[O:6])([H:7])([H:8])[H:9]"
C       -1.26913163      -0.37859155      -0.17231839
C       -0.02270972      -0.45379352       0.61537381
C        1.01019040       1.40145884      -0.05305927
N        1.48544962       0.37431349      -0.58609562
N        1.44604345      -0.81509371      -0.69458601
O        0.49685236      -1.16182298       1.39831982
H       -1.72371611      -1.36848222      -0.21299165
H       -1.08069230      -0.01041161      -1.17546831
H       -1.93233482       0.30953826       0.35300016
H        1.59004876       2.10288500       0.52782545
10
Frame=6 idx=004102 GeodesicLength=0.6531854848981996 rxn_smarts="[C:1]([c:2]1[c:3]([H:10])[n:4][n:5][o:6]1)([H:7])([H:8])[H:9]>>[C:1]([C:2]([N-:5][N+:4]#[C:3][H:10])=[O:6])([H:7])([H:8])[H:9]"
C       -1.27360135      -0.37472096      -0.16977417
C       -0.01443627      -0.45147939       0.60010339
C        1.01047454       1.39033451      -0.03543892
N        1.51010633       0.38180934      -0.58181619
N        1.46526327      -0.81510540      -0.65374997
O        0.50651741      -1.21358751       1.34111890
H       -1.75354811      -1.35318565      -0.17321376
H       -1.09568206      -0.04368364      -1.18818559
H       -1.91416078       0.34460100       0.34161377
H        1.55906701       2.13501769       0.51934255
10
Frame=7 idx=004102 GeodesicLength=0.7617198671475996 rxn_smarts="[C:1]([c:2]1[c:3]([H:10])[n:4][n:5][o:6]1)([H:7])([H:8])[H:9]>>[C:1]([C:2]([N-:5][N+:4]#[C:3][H:10])=[O:6])([H:7])([H:8])[H:9]"
C       -1.27751515      -0.37078998      -0.16701462
C       -0.00536416      -0.45080950       0.58393123
C        1.01210116       1.37844263      -0.01732864
N        1.53608842       0.38879468      -0.57568931
N        1.48432315      -0.81435704      -0.61527849
O        0.51422061      -1.26290769       1.28338769
H       -1.78247328      -1.33575181      -0.13227118
H       -1.11162690      -0.07743639      -1.19942298
H       -1.89439465       0.37911388       0.32926870
H        1.52464081       2.16570121       0.51041761
10
Frame=8 idx=004102 GeodesicLength=0.8701351490017589 rxn_smarts="[C:1]([c:2]1[c:3]([H:10])[n:4][n:5][o:6]1)([H:7])([H:8])[H:9]>>[C:1]([C:2]([N-:5][N+:4]#[C:3][H:10])=[O:6])([H:7])([H:8])[H:9]"
C       -1.28094917      -0.36669185      -0.16410135
C        0.00422309      -0.45169330       0.56700794
C        1.01515106       1.36564339       0.00229998
N        1.56335519       0.39531017      -0.56714262
N        1.50322976      -0.81313648      -0.57859927
O        0.52013599      -1.31058507       1.22472943
H       -1.81011043      -1.31619475      -0.09066721
H       -1.12869468      -0.11106793      -1.20907098
H       -1.87338894       0.41273049       0.31615584
H        1.48704811       2.19568535       0.49938825
10
Frame=9 idx=004102 GeodesicLength=0.9782732139501716 rxn_smarts="[C:1]([c:2]1[c:3]([H:10])[n:4][n:5][o:6]1)([H:7])([H:8])[H:9]>>[C:1]([C:2]([N-:5][N+:4]#[C:3][H:10])=[O:6])([H:7])([H:8])[H:9]"
C       -1.28388572      -0.36217592      -0.16095956
C        0.01437133      -0.45354775       0.54924487
C        1.01972260       1.35208888       0.02245632
N        1.59226758       0.40110100      -0.55625046
N        1.52200650      -0.81194547      -0.54333225
O        0.52453464      -1.35623844       1.16521368
H       -1.83581415      -1.29458563      -0.04877296
H       -1.14704753      -0.14387112      -1.21697264
H       -1.85137984       0.44533086       0.30266111
H        1.44522458       2.22384360       0.48671189
10
Frame=10 idx=004102 GeodesicLength=1.0862433833530605 rxn_smarts="[C:1]([c:2]1[c:3]([H:10])[n:4][n:5][o:6]1)([H:7])([H:8])[H:9]>>[C:1]([C:2]([N-:5][N+:4]#[C:3][H:10])=[O:6])([H:7])([H:8])[H:9]"
C       -1.28631092      -0.35717220      -0.15762619
C        0.02498456      -0.45651520       0.53064661
C        1.02585776       1.33768516       0.04446152
N        1.62281311       0.40637724      -0.54231790
N        1.54079114      -0.81077654      -0.50914188
O        0.52753421      -1.40076099       1.10403509
H       -1.85967403      -1.27075961      -0.00637690
H       -1.16670896      -0.17586473      -1.22319545
H       -1.82823069       0.47716402       0.28869284
H        1.39894382       2.25062286       0.47082225
10
Frame=11 idx=004102 GeodesicLength=1.194064480371037 rxn_smarts="[C:1]([c:2]1[c:3]([H:10])[n:4][n:5][o:6]1)([H:7])([H:8])[H:9]>>[C:1]([C:2]([N-:5][N+:4]#[C:3][H:10])=[O:6])([H:7])([H:8])[H:9]"
C       -1.28817174      -0.35159957      -0.15411404
C        0.03604516      -0.46037161       0.51118904
C        1.03352134       1.32260325       0.06879974
N        1.65485497       0.41138028      -0.52506913
N        1.55968758      -0.80957406      -0.47567811
O        0.52931777      -1.44430640       1.04053771
H       -1.88152672      -1.24458035       0.03687049
H       -1.18776382      -0.20719296      -1.22777730
H       -1.80383645       0.50846992       0.27401344
H        1.34787191       2.27517151       0.45122815
10
Frame=12 idx=004102 GeodesicLength=1.30167686885482 rxn_smarts="[C:1]([c:2]1[c:3]([H:10])[n:4][n:5][o:6]1)([H:7])([H:8])[H:9]>>[C:1]([C:2]([N-:5][N+:4]#[C:3][H:10])=[O:6])([H:7])([H:8])[H:9]"
C       -1.28946251      -0.34522615      -0.15040530
C        0.04764680      -0.46435749       0.49061656
C        1.04261699       1.30723450       0.09374194
N        1.68873592       0.41587293      -0.50483792
N        1.57876643      -0.80865021      -0.44262414
O        0.53024716      -1.48574977       0.97496228
H       -1.90072934      -1.21613227       0.08103557
H       -1.21049137      -0.23758991      -1.23067147
H       -1.77843423       0.53934288       0.25864799
H        1.29110416       2.29525549       0.42953449
10
Frame=13 idx=004102 GeodesicLength=1.4091666555506037 rxn_smarts="[C:1]([c:2]1[c:3]([H:10])[n:4][n:5][o:6]1)([H:7])([H:8])[H:9]>>[C:1]([C:2]([N-:5][N+:4]#[C:3][H:10])=[O:6])([H:7])([H:8])[H:9]"
C       -1.29005347      -0.33784577      -0.14635654
C        0.05971810      -0.46933261       0.46911678
C        1.05360432       1.29097161       0.12355379
N        1.72441388       0.42020252      -0.47945838
N        1.59824289      -0.80780948      -0.40944460
O        0.53007810      -1.52695311       0.90541740
H       -1.91732799      -1.18527690       0.12541117
H       -1.23465189      -0.26569057      -1.23153360
H       -1.75168266       0.56973006       0.24354648
H        1.22765871       2.31200426       0.39974749
10
Frame=14 idx=004102 GeodesicLength=1.5169211666265268 rxn_smarts="[C:1]([c:2]1[c:3]([H:10])[n:4][n:5][o:6]1)([H:7])([H:8])[H:9]>>[C:1]([C:2]([N-:5][N+:4]#[C:3][H:10])=[O:6])([H:7])([H:8])[H:9]"
C       -1.28993204      -0.32916533      -0.14216425
C        0.07247830      -0.47362011       0.44600854
C        1.06601015       1.27476531       0.15308584
N        1.76239806       0.42381287      -0.45045935
N        1.61803678      -0.80746452      -0.37597154
O        0.52967206      -1.56491020       0.83315932
H       -1.93041264      -1.15189694       0.17117476
H       -1.26092563      -0.29245974      -1.23064205
H       -1.72389852       0.60019333       0.22760500
H        1.15657349       2.32074534       0.36820374
10
Frame=15 idx=004102 GeodesicLength=1.6248713862474462 rxn_smarts="[C:1]([c:2]1[c:3]([H:10])[n:4][n:5][o:6]1)([H:7])([H:8])[H:9]>>[C:1]([C:2]([N-:5][N+:4]#[C:3][H:10])=[O:6])([H:7])([H:8])[H:9]"
C       -1.28930095      -0.31957161      -0.13763460
C        0.08552846      -0.47725371       0.42167300
C        1.07858554       1.25936456       0.18558486
N        1.80146507       0.42809946      -0.41591982
N        1.63816619      -0.80636498      -0.34114237
O        0.52858906      -1.60044627       0.75617940
H       -1.93979509      -1.11697999       0.21734855
H       -1.28915508      -0.31718349      -1.22762760
H       -1.69578296       0.62984490       0.21171721
H        1.08169977       2.32049114       0.32982137
10
Frame=16 idx=004102 GeodesicLength=1.7332408799334809 rxn_smarts="[C:1]([c:2]1[c:3]([H:10])[n:4][n:5][o:6]1)([H:7])([H:8])[H:9]>>[C:1]([C:2]([N-:5][N+:4]#[C:3][H:10])=[O:6])([H:7])([H:8])[H:9]"
C       -1.28903279      -0.30996531      -0.13361575
C        0.09844621      -0.47828768       0.39483314
C        1.08954898       1.24622993       0.21268770
N        1.84100804       0.43260714      -0.37943818
N        1.65801541      -0.80471887      -0.30466521
O        0.52789465      -1.62959938       0.67757490
H       -1.94505706      -1.08117167       0.26590632
H       -1.32106404      -0.34397089      -1.22310536
H       -1.66904161       0.65847040       0.19235145
H        1.00928220       2.31040634       0.29747101
