10
Frame=0 idx=003198 GeodesicLength=0.0 rxn_smarts="[O:1]([C:2]([C:3](=[O:4])[H:9])([C:5](=[O:6])[H:10])[H:8])[H:7]>>[C-:3]#[O+:4].[O:1](/[C:2](=[C:5](\[O:6][H:9])[H:10])[H:8])[H:7]"
O        0.25255351      -0.82117043      -1.38571348
C        0.12998973       0.41403044      -0.81781767
C        0.99005998      -0.36694406       1.01542303
O        2.07925388      -0.34371178       1.34526809
C       -0.90736749       0.66940729       0.05685710
O       -1.44564350      -0.33177636       0.64933035
H       -0.50453831      -1.34113861      -1.08115215
H        0.71059363       1.18416931      -1.30739324
H       -0.20696172      -0.75668524       1.13622809
H       -1.09793970       1.69381943       0.38896987
10
Frame=1 idx=003198 GeodesicLength=0.07559332785646475 rxn_smarts="[O:1]([C:2]([C:3](=[O:4])[H:9])([C:5](=[O:6])[H:10])[H:8])[H:7]>>[C-:3]#[O+:4].[O:1](/[C:2](=[C:5](\[O:6][H:9])[H:10])[H:8])[H:7]"
O        0.23179489      -0.82217541      -1.40763276
C        0.13436665       0.40650163      -0.81985695
C        1.00797987      -0.37860703       1.01922389
O        2.08408941      -0.30650299       1.38680276
C       -0.90875367       0.66791171       0.05036702
O       -1.44786291      -0.33332251       0.64347426
H       -0.52797827      -1.33679065      -1.10090359
H        0.70735766       1.17984408      -1.31407448
H       -0.20310716      -0.76700204       1.14221081
H       -1.07788647       1.69014320       0.40038903
10
Frame=2 idx=003198 GeodesicLength=0.1500372200305941 rxn_smarts="[O:1]([C:2]([C:3](=[O:4])[H:9])([C:5](=[O:6])[H:10])[H:8])[H:7]>>[C-:3]#[O+:4].[O:1](/[C:2](=[C:5](\[O:6][H:9])[H:10])[H:8])[H:7]"
O        0.21125802      -0.82259764      -1.42918370
C        0.13870307       0.39881714      -0.82185200
C        1.02670565      -0.38894441       1.02370920
O        2.08723675      -0.27144025       1.42690002
C       -0.91022897       0.66644639       0.04371880
O       -1.44969508      -0.33487517       0.63775520
H       -0.55087993      -1.33213997      -1.12021666
H        0.70394591       1.17553100      -1.32038751
H       -0.19858274      -0.77666619       1.14860256
H       -1.05846268       1.68586909       0.41095410
10
Frame=3 idx=003198 GeodesicLength=0.22372772642166677 rxn_smarts="[O:1]([C:2]([C:3](=[O:4])[H:9])([C:5](=[O:6])[H:10])[H:8])[H:7]>>[C-:3]#[O+:4].[O:1](/[C:2](=[C:5](\[O:6][H:9])[H:10])[H:8])[H:7]"
O        0.19109510      -0.82249819      -1.45032280
C        0.14300993       0.39102314      -0.82378451
C        1.04606099      -0.39781294       1.02907558
O        2.08933952      -0.23884154       1.46526859
C       -0.91192250       0.66506845       0.03690004
O       -1.45133491      -0.33644134       0.63217469
H       -0.57316462      -1.32727825      -1.13908862
H        0.70048143       1.17130207      -1.32629601
H       -0.19357333      -0.78571853       1.15551368
H       -1.03999161       1.68119713       0.42055937
10
Frame=4 idx=003198 GeodesicLength=0.29682810307776175 rxn_smarts="[O:1]([C:2]([C:3](=[O:4])[H:9])([C:5](=[O:6])[H:10])[H:8])[H:7]>>[C-:3]#[O+:4].[O:1](/[C:2](=[C:5](\[O:6][H:9])[H:10])[H:8])[H:7]"
O        0.17111222      -0.82189117      -1.47117399
C        0.14727581       0.38304574      -0.82565426
C        1.06599746      -0.40541091       1.03526034
O        2.09066108      -0.20815078       1.50223298
C       -0.91378103       0.66374283       0.02992444
O       -1.45280898      -0.33802199       0.62668200
H       -0.59507516      -1.32215577      -1.15768322
H        0.69706073       1.16702745      -1.33172992
H       -0.18813754      -0.79431646       1.16285290
H       -1.02230460       1.67613106       0.42928873
10
Frame=5 idx=003198 GeodesicLength=0.3694542781164992 rxn_smarts="[O:1]([C:2]([C:3](=[O:4])[H:9])([C:5](=[O:6])[H:10])[H:8])[H:7]>>[C-:3]#[O+:4].[O:1](/[C:2](=[C:5](\[O:6][H:9])[H:10])[H:8])[H:7]"
O        0.15119211      -0.82079051      -1.49183333
C        0.15149226       0.37483189      -0.82746597
C        1.08647630      -0.41185676       1.04221846
O        2.09140775      -0.17902325       1.53801182
C       -0.91577660       0.66245177       0.02280928
O       -1.45414626      -0.33962209       0.62125588
H       -0.61676228      -1.31675228      -1.17611534
H        0.69376205       1.16262620      -1.33665068
H       -0.18232189      -0.80256967       1.17057137
H       -1.00532344       1.67070470       0.43719850
10
Frame=6 idx=003198 GeodesicLength=0.4417047507276829 rxn_smarts="[O:1]([C:2]([C:3](=[O:4])[H:9])([C:5](=[O:6])[H:10])[H:8])[H:7]>>[C-:3]#[O+:4].[O:1](/[C:2](=[C:5](\[O:6][H:9])[H:10])[H:8])[H:7]"
O        0.13122347      -0.81920226      -1.51239447
C        0.15564946       0.36632754      -0.82923124
C        1.10748544      -0.41726160       1.04989599
O        2.09170406      -0.15113085       1.57281460
C       -0.91788172       0.66117750       0.01557121
O       -1.45536715      -0.34125140       0.61588235
H       -0.63836347      -1.31104870      -1.19448686
H        0.69065967       1.15802332      -1.34103019
H       -0.17615277      -0.81057630       1.17862365
H       -0.98895699       1.66494276       0.44435496
10
Frame=7 idx=003198 GeodesicLength=0.5136707191479076 rxn_smarts="[O:1]([C:2]([C:3](=[O:4])[H:9])([C:5](=[O:6])[H:10])[H:8])[H:7]>>[C-:3]#[O+:4].[O:1](/[C:2](=[C:5](\[O:6][H:9])[H:10])[H:8])[H:7]"
O        0.11112133      -0.81711078      -1.53291832
C        0.15972935       0.35749320      -0.83096183
C        1.12902411      -0.42169695       1.05826758
O        2.09166270      -0.12426483       1.60679936
C       -0.92008133       0.65990304       0.00820937
O       -1.45648863      -0.34292660       0.61054424
H       -0.65997943      -1.30502008      -1.21286453
H        0.68780763       1.15316793      -1.34485183
H       -0.16964208      -0.81840843       1.18699444
H       -0.97315364       1.65886350       0.45078152
10
Frame=8 idx=003198 GeodesicLength=0.5853109059350547 rxn_smarts="[O:1]([C:2]([C:3](=[O:4])[H:9])([C:5](=[O:6])[H:10])[H:8])[H:7]>>[C-:3]#[O+:4].[O:1](/[C:2](=[C:5](\[O:6][H:9])[H:10])[H:8])[H:7]"
O        0.09080174      -0.81451089      -1.55349236
C        0.16372662       0.34825233      -0.83266208
C        1.15106263      -0.42528924       1.06728965
O        2.09126991      -0.09803309       1.64002613
C       -0.92233986       0.65860100       0.00075785
O       -1.45752081      -0.34464577       0.60522758
H       -0.68170416      -1.29862714      -1.23134794
H        0.68530696       1.14793696      -1.34804192
H       -0.16283174      -0.82613366       1.19563976
H       -0.95777129       1.65244948       0.45660334
10
Frame=9 idx=003198 GeodesicLength=0.6567849422472503 rxn_smarts="[O:1]([C:2]([C:3](=[O:4])[H:9])([C:5](=[O:6])[H:10])[H:8])[H:7]>>[C-:3]#[O+:4].[O:1](/[C:2](=[C:5](\[O:6][H:9])[H:10])[H:8])[H:7]"
O        0.07020874      -0.81137893      -1.57415557
C        0.16761714       0.33858731      -0.83435173
C        1.17363384      -0.42800787       1.07695182
O        2.09065819      -0.07244152       1.67267155
C       -0.92466650       0.65726713      -0.00679715
O       -1.45848740      -0.34643852       0.59992348
H       -0.70359995      -1.29187766      -1.24996710
H        0.68317139       1.14233794      -1.35063101
H       -0.15570179      -0.83379187       1.20456758
H       -0.94283366       1.64574398       0.46178815
10
Frame=10 idx=003198 GeodesicLength=0.7280984665564241 rxn_smarts="[O:1]([C:2]([C:3](=[O:4])[H:9])([C:5](=[O:6])[H:10])[H:8])[H:7]>>[C-:3]#[O+:4].[O:1](/[C:2](=[C:5](\[O:6][H:9])[H:10])[H:8])[H:7]"
O        0.04927539      -0.80768891      -1.59496708
C        0.17138616       0.32843990      -0.83604149
C        1.19674784      -0.42990724       1.08721937
O        2.08980997      -0.04727532       1.70482481
C       -0.92704085       0.65588180      -0.01444121
O       -1.45939203      -0.34831298       0.59462175
H       -0.72573364      -1.28473994      -1.26878287
H        0.68145391       1.13629072      -1.35259092
H       -0.14825303      -0.84142604       1.21375454
H       -0.92825371       1.63873801       0.46640312
10
Frame=11 idx=003198 GeodesicLength=0.799414615780046 rxn_smarts="[O:1]([C:2]([C:3](=[O:4])[H:9])([C:5](=[O:6])[H:10])[H:8])[H:7]>>[C-:3]#[O+:4].[O:1](/[C:2](=[C:5](\[O:6][H:9])[H:10])[H:8])[H:7]"
O        0.02795669      -0.80342843      -1.61603861
C        0.17503965       0.31775848      -0.83776854
C        1.22043939      -0.43096215       1.09805401
O        2.08875441      -0.02239225       1.73661747
C       -0.92946242       0.65442122      -0.02213789
O       -1.46029770      -0.35029532       0.58935655
H       -0.74818505      -1.27722258      -1.28788592
H        0.68024593       1.12974240      -1.35395479
H       -0.14051103      -0.84905364       1.22321005
H       -0.91397987       1.63143228       0.47054767
10
Frame=12 idx=003198 GeodesicLength=0.8702718099502164 rxn_smarts="[O:1]([C:2]([C:3](=[O:4])[H:9])([C:5](=[O:6])[H:10])[H:8])[H:7]>>[C-:3]#[O+:4].[O:1](/[C:2](=[C:5](\[O:6][H:9])[H:10])[H:8])[H:7]"
O        0.00626443      -0.79848566      -1.63716645
C        0.17852266       0.30650432      -0.83943468
C        1.24451343      -0.43125352       1.10959850
O        2.08760271       0.00227009       1.76769035
C       -0.93191270       0.65287003      -0.02996692
O       -1.46112498      -0.35238640       0.58396930
H       -0.77086986      -1.26919402      -1.30718909
H        0.67950570       1.12262320      -1.35451388
H       -0.13251538      -0.85671990       1.23293262
H       -0.89998599       1.62377186       0.47408025
10
Frame=13 idx=003198 GeodesicLength=0.9409681113546434 rxn_smarts="[O:1]([C:2]([C:3](=[O:4])[H:9])([C:5](=[O:6])[H:10])[H:8])[H:7]>>[C-:3]#[O+:4].[O:1](/[C:2](=[C:5](\[O:6][H:9])[H:10])[H:8])[H:7]"
O       -0.01593278      -0.79286347      -1.65855367
C        0.18180801       0.29462120      -0.84117558
C        1.26924451      -0.43076949       1.12160448
O        2.08599848       0.02687213       1.79865243
C       -0.93431630       0.65120329      -0.03784675
O       -1.46183252      -0.35460990       0.57860785
H       -0.79397451      -1.26063743      -1.32681150
H        0.67923059       1.11486815      -1.35450193
H       -0.12409373      -0.86445406       1.24288616
H       -0.88613175       1.61576958       0.47713851
10
Frame=14 idx=003198 GeodesicLength=1.0116880424047536 rxn_smarts="[O:1]([C:2]([C:3](=[O:4])[H:9])([C:5](=[O:6])[H:10])[H:8])[H:7]>>[C-:3]#[O+:4].[O:1](/[C:2](=[C:5](\[O:6][H:9])[H:10])[H:8])[H:7]"
O       -0.03859654      -0.78655571      -1.68022208
C        0.18491763       0.28204974      -0.84295906
C        1.29455859      -0.42949346       1.13419525
O        2.08419885       0.05156507       1.82928894
C       -0.93673172       0.64941142      -0.04576299
O       -1.46257164      -0.35699644       0.57321286
H       -0.81753543      -1.25155860      -1.34685918
H        0.67957217       1.10642010      -1.35380127
H       -0.11538144      -0.87228312       1.25310469
H       -0.87243046       1.60744100       0.47980283
10
Frame=15 idx=003198 GeodesicLength=1.0823091277295775 rxn_smarts="[O:1]([C:2]([C:3](=[O:4])[H:9])([C:5](=[O:6])[H:10])[H:8])[H:7]>>[C-:3]#[O+:4].[O:1](/[C:2](=[C:5](\[O:6][H:9])[H:10])[H:8])[H:7]"
O       -0.06173374      -0.77950023      -1.70213139
C        0.18780276       0.26875187      -0.84479390
C        1.32045402      -0.42739005       1.14734363
O        2.08216566       0.07631568       1.85965138
C       -0.93913737       0.64748009      -0.05372993
O       -1.46329795      -0.35955324       0.56776063
H       -0.84153908      -1.24189297      -1.36731958
H        0.68047538       1.09722057      -1.35242012
H       -0.10633450      -0.88019677       1.26359439
H       -0.85885518       1.59876505       0.48204489
10
Frame=16 idx=003198 GeodesicLength=1.1528416208256416 rxn_smarts="[O:1]([C:2]([C:3](=[O:4])[H:9])([C:5](=[O:6])[H:10])[H:8])[H:7]>>[C-:3]#[O+:4].[O:1](/[C:2](=[C:5](\[O:6][H:9])[H:10])[H:8])[H:7]"
O       -0.08534333      -0.77164744      -1.72427784
C        0.19044070       0.25467865      -0.84669097
C        1.34693996      -0.42445867       1.16103958
O        2.07987366       0.10121124       1.88973656
C       -0.94152163       0.64538922      -0.06173765
O       -1.46403184      -0.36230067       0.56223896
H       -0.86601073      -1.23158343      -1.38822577
H        0.68196422       1.08720206      -1.35035322
H       -0.09695771      -0.88820465       1.27437118
H       -0.84535330       1.58971368       0.48389917
