18
Frame=0 idx=006565 GeodesicLength=0.0 rxn_smarts="[C:1]([C:2]([C:3]([C:4]([C:5]([H:16])([H:17])[H:18])([H:14])[H:15])([C:6]#[N:7])[H:13])([H:11])[H:12])([H:8])([H:9])[H:10]>>[C:1]1([H:8])([H:10])[C:2]([H:11])([H:12])[C@:3]([C:4]([C:5]([H:16])([H:17])[H:18])([H:14])[H:15])([H:13])[C:6][N:7]1[H:9]"
C       -2.44589637       0.20621679       0.02661823
C       -1.26471629      -0.67355785      -0.05417635
C        0.09211260       0.04956084       0.28095776
C        1.31332741      -0.66273184      -0.29117614
C        2.63716511      -0.11089933       0.21752573
C       -0.07571325       1.46837457      -0.16089469
N       -1.17080469       1.93483017      -0.34831266
H       -3.20220840       0.08220074      -0.74450834
H       -2.15562214       2.04458141      -0.54641419
H       -2.86954352       0.37664273       1.01411519
H       -1.32452731      -1.49936779       0.66175107
H       -1.17375651      -1.10865326      -1.05275612
H        0.20237039       0.12240869       1.37126604
H        1.23396537      -1.72515075      -0.04237020
H        1.27446553      -0.59845702      -1.38313246
H        2.71829787      -0.22161091       1.30183176
H        3.48110748      -0.63509131      -0.23422083
H        2.72997668       0.95070407      -0.01610383
18
Frame=1 idx=006565 GeodesicLength=0.09297762617634373 rxn_smarts="[C:1]([C:2]([C:3]([C:4]([C:5]([H:16])([H:17])[H:18])([H:14])[H:15])([C:6]#[N:7])[H:13])([H:11])[H:12])([H:8])([H:9])[H:10]>>[C:1]1([H:8])([H:10])[C:2]([H:11])([H:12])[C@:3]([C:4]([C:5]([H:16])([H:17])[H:18])([H:14])[H:15])([H:13])[C:6][N:7]1[H:9]"
C       -2.43965970       0.21981148       0.02424755
C       -1.26380097      -0.67220981      -0.05958434
C        0.09114013       0.04796889       0.27960631
C        1.31400997      -0.66455410      -0.28928067
C        2.63652089      -0.10984282       0.21972097
C       -0.06934763       1.46717793      -0.16338526
N       -1.16048752       1.93630442      -0.37036266
H       -3.20683560       0.07965840      -0.73367886
H       -2.17580792       2.02725371      -0.52290025
H       -2.85702421       0.38210267       1.01628647
H       -1.33017488      -1.50191111       0.65083521
H       -1.17504617      -1.10227259      -1.06054662
H        0.19796661       0.12024255       1.37029011
H        1.23514550      -1.72642298      -0.03792393
H        1.27671797      -0.60288233      -1.38145163
H        2.71627634      -0.21744325       1.30444143
H        3.48163321      -0.63418725      -0.22961414
H        2.72877396       0.95120618      -0.01669971
18
Frame=2 idx=006565 GeodesicLength=0.185860707736045 rxn_smarts="[C:1]([C:2]([C:3]([C:4]([C:5]([H:16])([H:17])[H:18])([H:14])[H:15])([C:6]#[N:7])[H:13])([H:11])[H:12])([H:8])([H:9])[H:10]>>[C:1]1([H:8])([H:10])[C:2]([H:11])([H:12])[C@:3]([C:4]([C:5]([H:16])([H:17])[H:18])([H:14])[H:15])([H:13])[C:6][N:7]1[H:9]"
C       -2.43356044       0.23296751       0.02191875
C       -1.26297333      -0.67108411      -0.06491650
C        0.09001830       0.04630385       0.27827006
C        1.31458602      -0.66632555      -0.28740130
C        2.63572512      -0.10861072       0.22185741
C       -0.06335652       1.46589633      -0.16576274
N       -1.15041369       1.93712939      -0.39268242
H       -3.21114941       0.07751028      -0.72272570
H       -2.19413031       2.01080171      -0.49935098
H       -2.84460309       0.38724530       1.01837817
H       -1.33584049      -1.50455562       0.64001957
H       -1.17636997      -1.09617774      -1.06819578
H        0.19343693       0.11801095       1.36931542
H        1.23631897      -1.72764424      -0.03349231
H        1.27881644      -0.60723447      -1.37977521
H        2.71413740      -0.21309677       1.30697896
H        3.48204186      -0.63302167      -0.22508523
H        2.72731622       0.95188557      -0.01735017
18
Frame=3 idx=006565 GeodesicLength=0.2787532291358276 rxn_smarts="[C:1]([C:2]([C:3]([C:4]([C:5]([H:16])([H:17])[H:18])([H:14])[H:15])([C:6]#[N:7])[H:13])([H:11])[H:12])([H:8])([H:9])[H:10]>>[C:1]1([H:8])([H:10])[C:2]([H:11])([H:12])[C@:3]([C:4]([C:5]([H:16])([H:17])[H:18])([H:14])[H:15])([H:13])[C:6][N:7]1[H:9]"
C       -2.42758028       0.24574144       0.01966981
C       -1.26222112      -0.67013543      -0.07015781
C        0.08877465       0.04457674       0.27696797
C        1.31506427      -0.66804916      -0.28554129
C        2.63480084      -0.10723278       0.22392212
C       -0.05769558       1.46453669      -0.16803620
N       -1.14056248       1.93747597      -0.41472904
H       -3.21514668       0.07574750      -0.71164776
H       -2.21084704       1.99501399      -0.47633897
H       -2.83230999       0.39206012       1.02042119
H       -1.34151685      -1.50727843       0.62929510
H       -1.17772849      -1.09029200      -1.07570456
H        0.18882775       0.11570196       1.36836037
H        1.23747960      -1.72881801      -0.02908589
H        1.28076347      -0.61151490      -1.37810571
H        2.71191378      -0.20861116       1.30942956
H        3.48234258      -0.63163518      -0.22065859
H        2.72564157       0.95271263      -0.01806030
18
Frame=4 idx=006565 GeodesicLength=0.3716652760077193 rxn_smarts="[C:1]([C:2]([C:3]([C:4]([C:5]([H:16])([H:17])[H:18])([H:14])[H:15])([C:6]#[N:7])[H:13])([H:11])[H:12])([H:8])([H:9])[H:10]>>[C:1]1([H:8])([H:10])[C:2]([H:11])([H:12])[C@:3]([C:4]([C:5]([H:16])([H:17])[H:18])([H:14])[H:15])([H:13])[C:6][N:7]1[H:9]"
C       -2.42169984       0.25817950       0.01752282
C       -1.26152883      -0.66932719      -0.07530967
C        0.08743634       0.04279525       0.27570869
C        1.31546072      -0.66973360      -0.28369897
C        2.63377461      -0.10574124       0.22591502
C       -0.05231237       1.46310465      -0.17021489
N       -1.13089723       1.93746900      -0.43622107
H       -3.21883608       0.07433399      -0.70043120
H       -2.22630379       1.97978391      -0.45417661
H       -2.82013770       0.39656732       1.02243915
H       -1.34719569      -1.51006287       0.61864053
H       -1.17911579      -1.08455263      -1.08308666
H        0.18417314       0.11330938       1.36743425
H        1.23862754      -1.72995302      -0.02470630
H        1.28257689      -0.61573247      -1.37644212
H        2.70963208      -0.20402214       1.31179326
H        3.48255298      -0.63007236      -0.21633722
H        2.72379302       0.95365450      -0.01882900
18
Frame=5 idx=006565 GeodesicLength=0.46477796695051576 rxn_smarts="[C:1]([C:2]([C:3]([C:4]([C:5]([H:16])([H:17])[H:18])([H:14])[H:15])([C:6]#[N:7])[H:13])([H:11])[H:12])([H:8])([H:9])[H:10]>>[C:1]1([H:8])([H:10])[C:2]([H:11])([H:12])[C@:3]([C:4]([C:5]([H:16])([H:17])[H:18])([H:14])[H:15])([H:13])[C:6][N:7]1[H:9]"
C       -2.41589313       0.27032915       0.01548550
C       -1.26087883      -0.66862412      -0.08038519
C        0.08602997       0.04096745       0.27449523
C        1.31579467      -0.67138728      -0.28187166
C        2.63267460      -0.10417107       0.22784697
C       -0.04714852       1.46161016      -0.17229295
N       -1.12136384       1.93719613      -0.45709188
H       -3.22223814       0.07321457      -0.68904581
H       -2.24091265       1.96503777      -0.43298150
H       -2.80804549       0.40081689       1.02444854
H       -1.35287083      -1.51288923       0.60802586
H       -1.18052058      -1.07890500      -1.09036531
H        0.17949845       0.11082941       1.36654237
H        1.23976422      -1.73105765      -0.02035742
H        1.28428252      -0.61989088      -1.37478272
H        2.70731438      -0.19937043       1.31408169
H        3.48269470      -0.62838092      -0.21211043
H        2.72181849       0.95467504      -0.01964130
18
Frame=6 idx=006565 GeodesicLength=0.5580770312677997 rxn_smarts="[C:1]([C:2]([C:3]([C:4]([C:5]([H:16])([H:17])[H:18])([H:14])[H:15])([C:6]#[N:7])[H:13])([H:11])[H:12])([H:8])([H:9])[H:10]>>[C:1]1([H:8])([H:10])[C:2]([H:11])([H:12])[C@:3]([C:4]([C:5]([H:16])([H:17])[H:18])([H:14])[H:15])([H:13])[C:6][N:7]1[H:9]"
C       -2.41013914       0.28221610       0.01354588
C       -1.26025697      -0.66801321      -0.08540311
C        0.08457163       0.03909582       0.27331797
C        1.31608226      -0.67302271      -0.28005228
C        2.63151649      -0.10254169       0.22973118
C       -0.04216873       1.46005461      -0.17428636
N       -1.11190373       1.93666711      -0.47747907
H       -3.22535528       0.07235848      -0.67749731
H       -2.25498784       1.95081658      -0.41258366
H       -2.79599738       0.40483649       1.02644486
H       -1.35853566      -1.51574763       0.59742921
H       -1.18193029      -1.07333490      -1.09755920
H        0.17481017       0.10827172       1.36567560
H        1.24089482      -1.73214232      -0.01602567
H        1.28590688      -0.62400928      -1.37312149
H        2.70496549      -0.19466695       1.31630984
H        3.48278285      -0.62659043      -0.20795413
H        2.71974440       0.95575222      -0.02049228
18
Frame=7 idx=006565 GeodesicLength=0.6515853126999956 rxn_smarts="[C:1]([C:2]([C:3]([C:4]([C:5]([H:16])([H:17])[H:18])([H:14])[H:15])([C:6]#[N:7])[H:13])([H:11])[H:12])([H:8])([H:9])[H:10]>>[C:1]1([H:8])([H:10])[C:2]([H:11])([H:12])[C@:3]([C:4]([C:5]([H:16])([H:17])[H:18])([H:14])[H:15])([H:13])[C:6][N:7]1[H:9]"
C       -2.40441735       0.29386840       0.01168248
C       -1.25965327      -0.66748359      -0.09037825
C        0.08307332       0.03718316       0.27216858
C        1.31633587      -0.67464910      -0.27823520
C        2.63031239      -0.10086652       0.23157834
C       -0.03734835       1.45844101      -0.17620496
N       -1.10245659       1.93586972      -0.49754683
H       -3.22818617       0.07174554      -0.66580821
H       -2.26878166       1.93714503      -0.39276358
H       -2.78396830       0.40864975       1.02841206
H       -1.36419017      -1.51862361       0.58684002
H       -1.18333447      -1.06784055      -1.10467992
H        0.17011196       0.10564667       1.36482633
H        1.24202324      -1.73321395      -0.01169897
H        1.28746989      -0.62810233      -1.37145377
H        2.70258967      -0.18991816       1.31848977
H        3.48282960      -0.62472183      -0.20384965
H        2.71759038       0.95687035      -0.02137823
18
Frame=8 idx=006565 GeodesicLength=0.7452360795878763 rxn_smarts="[C:1]([C:2]([C:3]([C:4]([C:5]([H:16])([H:17])[H:18])([H:14])[H:15])([C:6]#[N:7])[H:13])([H:11])[H:12])([H:8])([H:9])[H:10]>>[C:1]1([H:8])([H:10])[C:2]([H:11])([H:12])[C@:3]([C:4]([C:5]([H:16])([H:17])[H:18])([H:14])[H:15])([H:13])[C:6][N:7]1[H:9]"
C       -2.39871275       0.30531217       0.00987165
C       -1.25906141      -0.66702712      -0.09532202
C        0.08154256       0.03523306       0.27103892
C        1.31656338      -0.67627309      -0.27641522
C        2.62906941      -0.09915289       0.23339567
C       -0.03267238       1.45677311      -0.17806079
N       -1.09297143       1.93477996      -0.51745221
H       -3.23072320       0.07136537      -0.65401050
H       -2.28246188       1.92404118      -0.37329105
H       -2.77194851       0.41226264       1.03032922
H       -1.36983715      -1.52150233       0.57625481
H       -1.18472542      -1.06242726      -1.11173331
H        0.16540401       0.10296719       1.36398657
H        1.24315103      -1.73427670      -0.00736455
H        1.28898493      -0.63218301      -1.36977510
H        2.70018819      -0.18512378       1.32062960
H        3.48284218      -0.62278834      -0.19978218
H        2.71536843       0.95801985      -0.02229952
18
Frame=9 idx=006565 GeodesicLength=0.838211939458609 rxn_smarts="[C:1]([C:2]([C:3]([C:4]([C:5]([H:16])([H:17])[H:18])([H:14])[H:15])([C:6]#[N:7])[H:13])([H:11])[H:12])([H:8])([H:9])[H:10]>>[C:1]1([H:8])([H:10])[C:2]([H:11])([H:12])[C@:3]([C:4]([C:5]([H:16])([H:17])[H:18])([H:14])[H:15])([H:13])[C:6][N:7]1[H:9]"
C       -2.39302624       0.31655310       0.00810342
C       -1.25848339      -0.66664360      -0.10023152
C        0.07997701       0.03324778       0.26992791
C        1.31676196      -0.67789402      -0.27459236
C        2.62778410      -0.09739683       0.23517880
C       -0.02814497       1.45505020      -0.17986565
N       -1.08345793       1.93340758      -0.53716285
H       -3.23297172       0.07119525      -0.64213130
H       -2.29595527       1.91149679      -0.35413281
H       -2.75995916       0.41567034       1.03218159
H       -1.37547931      -1.52437916       0.56568318
H       -1.18610473      -1.05710342      -1.11871403
H        0.16068503       0.10024110       1.36315480
H        1.24427677      -1.73532855      -0.00301728
H        1.29044821      -0.63625673      -1.36808623
H        2.69775986      -0.18027697       1.32272529
H        3.48281671      -0.62078660      -0.19575701
H        2.71307305       0.95920377      -0.02326394
18
Frame=10 idx=006565 GeodesicLength=0.9312011719944596 rxn_smarts="[C:1]([C:2]([C:3]([C:4]([C:5]([H:16])([H:17])[H:18])([H:14])[H:15])([C:6]#[N:7])[H:13])([H:11])[H:12])([H:8])([H:9])[H:10]>>[C:1]1([H:8])([H:10])[C:2]([H:11])([H:12])[C@:3]([C:4]([C:5]([H:16])([H:17])[H:18])([H:14])[H:15])([H:13])[C:6][N:7]1[H:9]"
C       -2.38733150       0.32763363       0.00634262
C       -1.25791104      -0.66632008      -0.10512420
C        0.07838822       0.03123308       0.26882218
C        1.31694389      -0.67952253      -0.27275740
C        2.62646734      -0.09560767       0.23693864
C       -0.02374510       1.45327929      -0.18163967
N       -1.07381863       1.93169132      -0.55694435
H       -3.23490536       0.07126187      -0.63022890
H       -2.30954677       1.89952798      -0.33490497
H       -2.74798838       0.41886244       1.03393594
H       -1.38112178      -1.52723042       0.55512026
H       -1.18746190      -1.05187937      -1.12563062
H        0.15595489       0.09748984       1.36231774
H        1.24540241      -1.73637546       0.00136645
H        1.29188019      -0.64034537      -1.36637840
H        2.69530587      -0.17537152       1.32478934
H        3.48276518      -0.61873554      -0.19174896
H        2.71072246       0.96040852      -0.02427568
18
Frame=11 idx=006565 GeodesicLength=1.024285787407313 rxn_smarts="[C:1]([C:2]([C:3]([C:4]([C:5]([H:16])([H:17])[H:18])([H:14])[H:15])([C:6]#[N:7])[H:13])([H:11])[H:12])([H:8])([H:9])[H:10]>>[C:1]1([H:8])([H:10])[C:2]([H:11])([H:12])[C@:3]([C:4]([C:5]([H:16])([H:17])[H:18])([H:14])[H:15])([H:13])[C:6][N:7]1[H:9]"
C       -2.38161492       0.33858499       0.00457490
C       -1.25734140      -0.66604426      -0.11001070
C        0.07678105       0.02919622       0.26771372
C        1.31711331      -0.68116185      -0.27090534
C        2.62512277      -0.09378974       0.23868140
C       -0.01945880       1.45146795      -0.18339382
N       -1.06401036       1.92960450      -0.57694730
H       -3.23651490       0.07157227      -0.61833464
H       -2.32334422       1.88811787      -0.31539447
H       -2.73603780       0.42181531       1.03557870
H       -1.38676794      -1.53004058       0.54455940
H       -1.18879459      -1.04675379      -1.13249018
H        0.15121171       0.09472985       1.36146736
H        1.24652494      -1.73741757       0.00579941
H        1.29328990      -0.64445892      -1.36464670
H        2.69282378      -0.17040215       1.32682854
H        3.48269096      -0.61664652      -0.18774282
H        2.70832649       0.96162642      -0.02533748
18
Frame=12 idx=006565 GeodesicLength=1.1174416309880881 rxn_smarts="[C:1]([C:2]([C:3]([C:4]([C:5]([H:16])([H:17])[H:18])([H:14])[H:15])([C:6]#[N:7])[H:13])([H:11])[H:12])([H:8])([H:9])[H:10]>>[C:1]1([H:8])([H:10])[C:2]([H:11])([H:12])[C@:3]([C:4]([C:5]([H:16])([H:17])[H:18])([H:14])[H:15])([H:13])[C:6][N:7]1[H:9]"
C       -2.37586483       0.34943775       0.00278541
C       -1.25677422      -0.66580556      -0.11489438
C        0.07515886       0.02714308       0.26659837
C        1.31727200      -0.68281498      -0.26903175
C        2.62375234      -0.09194342       0.24040687
C       -0.01528055       1.44962086      -0.18514420
N       -1.05398905       1.92712245      -0.59724358
H       -3.23778374       0.07214365      -0.60649469
H       -2.33741621       1.87723757      -0.29544338
H       -2.72412481       0.42450020       1.03709038
H       -1.39242410      -1.53279345       0.53400423
H       -1.19010270      -1.04173024      -1.13929177
H        0.14645581       0.09197620       1.36059911
H        1.24764200      -1.73845459       0.01029609
H        1.29468031      -0.64860941      -1.36288707
H        2.69031441      -0.16535970       1.32884316
H        3.48259556      -0.61452482      -0.18373376
H        2.70588895       0.96285441      -0.02645905
18
Frame=13 idx=006565 GeodesicLength=1.2107257814744712 rxn_smarts="[C:1]([C:2]([C:3]([C:4]([C:5]([H:16])([H:17])[H:18])([H:14])[H:15])([C:6]#[N:7])[H:13])([H:11])[H:12])([H:8])([H:9])[H:10]>>[C:1]1([H:8])([H:10])[C:2]([H:11])([H:12])[C@:3]([C:4]([C:5]([H:16])([H:17])[H:18])([H:14])[H:15])([H:13])[C:6][N:7]1[H:9]"
C       -2.37006768       0.36022919       0.00096210
C       -1.25620929      -0.66558881      -0.11978039
C        0.07352559       0.02508273       0.26547068
C        1.31742192      -0.68448347      -0.26713240
C        2.62235871      -0.09007106       0.24211716
C       -0.01120049       1.44774721      -0.18690370
N       -1.04371005       1.92421545      -0.61793428
H       -3.23869615       0.07299420      -0.59475154
H       -2.35184078       1.86684254      -0.27487718
H       -2.71226511       0.42688236       1.03845450
H       -1.39809671      -1.53546956       0.52345544
H       -1.19138744      -1.03680761      -1.14603670
H        0.14168742       0.08924744       1.35970723
H        1.24874888      -1.73948506       0.01486917
H        1.29605590      -0.65280559      -1.36109551
H        2.68777761      -0.16023871       1.33083562
H        3.48248065      -0.61237867      -0.17971422
H        2.70341703       0.96408743      -0.02764597
18
Frame=14 idx=006565 GeodesicLength=1.304042128370176 rxn_smarts="[C:1]([C:2]([C:3]([C:4]([C:5]([H:16])([H:17])[H:18])([H:14])[H:15])([C:6]#[N:7])[H:13])([H:11])[H:12])([H:8])([H:9])[H:10]>>[C:1]1([H:8])([H:10])[C:2]([H:11])([H:12])[C@:3]([C:4]([C:5]([H:16])([H:17])[H:18])([H:14])[H:15])([H:13])[C:6][N:7]1[H:9]"
C       -2.36421241       0.37099275      -0.00089956
C       -1.25564774      -0.66538024      -0.12466973
C        0.07188384       0.02302334       0.26432819
C        1.31756289      -0.68616791      -0.26520350
C        2.62094299      -0.08817303       0.24381130
C       -0.00721306       1.44585393      -0.18868588
N       -1.03313731       1.92086266      -0.63907244
H       -3.23923803       0.07414108      -0.58314805
H       -2.36665595       1.85688853      -0.25357878
H       -2.70048190       0.42891998       1.03965840
H       -1.40379149      -1.53805241       0.51291597
H       -1.19265193      -1.03198350      -1.15272368
H        0.13690774       0.08655992       1.35878880
H        1.24984060      -1.74050662       0.01953030
H        1.29741682      -0.65705532      -1.35926831
H        2.68521440      -0.15503278       1.33280496
H        3.48234594      -0.61021303      -0.17568193
H        2.70091459       0.96532266      -0.02890606
18
Frame=15 idx=006565 GeodesicLength=1.3973511485232424 rxn_smarts="[C:1]([C:2]([C:3]([C:4]([C:5]([H:16])([H:17])[H:18])([H:14])[H:15])([C:6]#[N:7])[H:13])([H:11])[H:12])([H:8])([H:9])[H:10]>>[C:1]1([H:8])([H:10])[C:2]([H:11])([H:12])[C@:3]([C:4]([C:5]([H:16])([H:17])[H:18])([H:14])[H:15])([H:13])[C:6][N:7]1[H:9]"
C       -2.35828791       0.38176379      -0.00280023
C       -1.25509044      -0.66516404      -0.12956631
C        0.07023647       0.02097463       0.26316638
C        1.31769521      -0.68786884      -0.26324094
C        2.61950657      -0.08625097       0.24549092
C       -0.00330982       1.44394961      -0.19050503
N       -1.02223448       1.91704009      -0.66073893
H       -3.23939188       0.07560610      -0.57172224
H       -2.38191265       1.84732609      -0.23141313
H       -2.68879385       0.43056627       1.04069404
H       -1.40951276      -1.54052529       0.50238314
H       -1.19390058      -1.02725126      -1.15935480
H        0.13211686       0.08393257       1.35783896
H        1.25091092      -1.74151671       0.02429128
H        1.29876539      -0.66136638      -1.35740125
H        2.68262376      -0.14973598       1.33475275
H        3.48219160      -0.60803531      -0.17162972
H        2.69838760       0.96655563      -0.03024488
18
Frame=16 idx=006565 GeodesicLength=1.4905996720136052 rxn_smarts="[C:1]([C:2]([C:3]([C:4]([C:5]([H:16])([H:17])[H:18])([H:14])[H:15])([C:6]#[N:7])[H:13])([H:11])[H:12])([H:8])([H:9])[H:10]>>[C:1]1([H:8])([H:10])[C:2]([H:11])([H:12])[C@:3]([C:4]([C:5]([H:16])([H:17])[H:18])([H:14])[H:15])([H:13])[C:6][N:7]1[H:9]"
C       -2.35228136       0.39258478      -0.00473927
C       -1.25453942      -0.66492086      -0.13446974
C        0.06858662       0.01894745       0.26198446
C        1.31781787      -0.68958540      -0.26124090
C        2.61805105      -0.08430638       0.24715472
C        0.00051680       1.44204480      -0.19237073
N       -1.01095792       1.91272304      -0.68298763
H       -3.23913907       0.07741210      -0.56051747
H       -2.39765795       1.83808455      -0.20827496
H       -2.67722628       0.43177251       1.04155037
H       -1.41526796      -1.54286730       0.49185957
H       -1.19513892      -1.02260316      -1.16592795
H        0.12731735       0.08138337       1.35685644
H        1.25195246      -1.74251168       0.02916250
H        1.30010014      -0.66574352      -1.35549045
H        2.68000814      -0.14434495       1.33667732
H        3.48201685      -0.60585197      -0.16755738
H        2.69584160       0.96778263      -0.03166891
