16
Frame=0 idx=008585 GeodesicLength=0.0 rxn_smarts="[C:1]([c:2]1[c:3]([H:11])[c:4]([C:5]([H:12])([H:13])[H:14])[c:6]([H:15])[n:7]1[H:16])([H:8])([H:9])[H:10]>>[C:1]([N+:7]1([H:16])[C-:2]=[C:3]([H:11])[C:4]([C:5]([H:12])([H:13])[H:14])=[C:6]1[H:15])([H:8])([H:9])[H:10]"
C        2.17398430      -0.04603399       0.50673543
C        1.09051660      -0.47435056      -1.18239673
C       -0.12073157      -1.03236302      -0.79499840
C       -0.96582942      -0.08916772      -0.15783049
C       -2.37083809      -0.32233812       0.29485954
C       -0.26618697       1.08472719      -0.04077202
N        0.98881786       0.84098742      -0.56190019
H        1.49435365      -0.37651758       1.28353607
H        2.84980404      -0.81814615       0.16800868
H        2.72106781       0.85130949       0.78673624
H       -0.40270437      -2.05353103      -1.01323319
H       -2.80854695       0.57315255       0.73639628
H       -2.41188311      -1.12361954       1.03557356
H       -2.99698647      -0.62802643      -0.54557309
H       -0.53320412       2.02687795       0.41117951
H        1.55836674       1.58703950      -0.92632119
16
Frame=1 idx=008585 GeodesicLength=0.044272884936566476 rxn_smarts="[C:1]([c:2]1[c:3]([H:11])[c:4]([C:5]([H:12])([H:13])[H:14])[c:6]([H:15])[n:7]1[H:16])([H:8])([H:9])[H:10]>>[C:1]([N+:7]1([H:16])[C-:2]=[C:3]([H:11])[C:4]([C:5]([H:12])([H:13])[H:14])=[C:6]1[H:15])([H:8])([H:9])[H:10]"
C        2.19530795      -0.04388349       0.49121119
C        1.08486181      -0.47490709      -1.16419724
C       -0.12338299      -1.03564897      -0.77833423
C       -0.97257195      -0.09146916      -0.14440394
C       -2.38783953      -0.31855480       0.27814290
C       -0.27233746       1.07986902      -0.02046123
N        0.98219178       0.84227081      -0.55008450
H        1.53991943      -0.37062801       1.29061421
H        2.86753700      -0.81953138       0.15173123
H        2.75466327       0.85046921       0.75755396
H       -0.39535738      -2.06295592      -0.97946024
H       -2.82997043       0.57801546       0.71304239
H       -2.44709503      -1.12156833       1.01578984
H       -2.99909574      -0.61936073      -0.57498190
H       -0.53524786       2.01718786       0.44378125
H        1.53841713       1.59069552      -0.92994371
16
Frame=2 idx=008585 GeodesicLength=0.08828730414387842 rxn_smarts="[C:1]([c:2]1[c:3]([H:11])[c:4]([C:5]([H:12])([H:13])[H:14])[c:6]([H:15])[n:7]1[H:16])([H:8])([H:9])[H:10]>>[C:1]([N+:7]1([H:16])[C-:2]=[C:3]([H:11])[C:4]([C:5]([H:12])([H:13])[H:14])=[C:6]1[H:15])([H:8])([H:9])[H:10]"
C        2.21649174      -0.04165185       0.47545486
C        1.07914421      -0.47567444      -1.14530251
C       -0.12603605      -1.03921634      -0.76087832
C       -0.97965213      -0.09381516      -0.13097827
C       -2.40460262      -0.31459365       0.26100355
C       -0.27847792       1.07463286       0.00070501
N        0.97550549       0.84329502      -0.53748190
H        1.58649209      -0.36432424       1.29712476
H        2.88512531      -0.82076196       0.13508938
H        2.78783805       0.84977683       0.72720134
H       -0.38837953      -2.07207936      -0.94534139
H       -2.85100749       0.58315372       0.68906506
H       -2.48225131      -1.11923574       0.99520906
H       -3.00050541      -0.61053218      -0.60465720
H       -0.53754498       2.00713407       0.47665672
H        1.51786055       1.59389242      -0.93287015
16
Frame=3 idx=008585 GeodesicLength=0.13192801899980405 rxn_smarts="[C:1]([c:2]1[c:3]([H:11])[c:4]([C:5]([H:12])([H:13])[H:14])[c:6]([H:15])[n:7]1[H:16])([H:8])([H:9])[H:10]>>[C:1]([N+:7]1([H:16])[C-:2]=[C:3]([H:11])[C:4]([C:5]([H:12])([H:13])[H:14])=[C:6]1[H:15])([H:8])([H:9])[H:10]"
C        2.23729998      -0.03940451       0.45966195
C        1.07349323      -0.47665435      -1.12573829
C       -0.12870608      -1.04295839      -0.74296013
C       -0.98706810      -0.09608900      -0.11790693
C       -2.42092562      -0.31051550       0.24366685
C       -0.28462958       1.06912312       0.02236664
N        0.96884858       0.84407606      -0.52416018
H        1.63366934      -0.35762951       1.30307223
H        2.90238199      -0.82191865       0.11840888
H        2.82029484       0.84913713       0.69601491
H       -0.38192326      -2.08075954      -0.91146106
H       -2.87140343       0.58847343       0.66481025
H       -2.51677393      -1.11665091       0.97412036
H       -3.00127882      -0.60172585      -0.63413660
H       -0.54020274       1.99690902       0.50927970
H        1.49692361       1.59658745      -0.93503857
16
Frame=4 idx=008585 GeodesicLength=0.17505899664893668 rxn_smarts="[C:1]([c:2]1[c:3]([H:11])[c:4]([C:5]([H:12])([H:13])[H:14])[c:6]([H:15])[n:7]1[H:16])([H:8])([H:9])[H:10]>>[C:1]([N+:7]1([H:16])[C-:2]=[C:3]([H:11])[C:4]([C:5]([H:12])([H:13])[H:14])=[C:6]1[H:15])([H:8])([H:9])[H:10]"
C        2.25743568      -0.03726446       0.44413251
C        1.06809670      -0.47779673      -1.10559295
C       -0.13141776      -1.04668210      -0.72512780
C       -0.99479700      -0.09811869      -0.10567578
C       -2.43656780      -0.30643435       0.22649396
C       -0.29082036       1.06352196       0.04398954
N        0.96236737       0.84466587      -0.51022380
H        1.68087528      -0.35063664       1.30851097
H        2.91906491      -0.82315383       0.10215979
H        2.85170225       0.84836228       0.66453878
H       -0.37615078      -2.08878244      -0.87866298
H       -2.89086957       0.59379361       0.64083848
H       -2.54987549      -1.11390533       0.95300679
H       -3.00159478      -0.59321799      -0.66274960
H       -0.54343326       1.98688638       0.54072503
H        1.47598461       1.59876248      -0.93636296
16
Frame=5 idx=008585 GeodesicLength=0.21753459742581727 rxn_smarts="[C:1]([c:2]1[c:3]([H:11])[c:4]([C:5]([H:12])([H:13])[H:14])[c:6]([H:15])[n:7]1[H:16])([H:8])([H:9])[H:10]>>[C:1]([N+:7]1([H:16])[C-:2]=[C:3]([H:11])[C:4]([C:5]([H:12])([H:13])[H:14])=[C:6]1[H:15])([H:8])([H:9])[H:10]"
C        2.27655902      -0.03537946       0.42924946
C        1.06318504      -0.47902599      -1.08503463
C       -0.13420739      -1.05013394      -0.70812818
C       -1.00279759      -0.09968513      -0.09490511
C       -2.45128516      -0.30250753       0.20994174
C       -0.29709487       1.05809835       0.06483354
N        0.95624929       0.84514970      -0.49586153
H        1.72737420      -0.34345576       1.31357761
H        2.93489031      -0.82466811       0.08695062
H        2.88172849       0.84722226       0.63348971
H       -0.37121835      -2.09589323      -0.84798640
H       -2.90913194       0.59887471       0.61783882
H       -2.58062703      -1.11112051       0.93254327
H       -3.00176501      -0.58539519      -0.68967466
H       -0.54741646       1.97749648       0.56998082
H        1.45555747       1.60042336      -0.93681508
16
Frame=6 idx=008585 GeodesicLength=0.2591397503304014 rxn_smarts="[C:1]([c:2]1[c:3]([H:11])[c:4]([C:5]([H:12])([H:13])[H:14])[c:6]([H:15])[n:7]1[H:16])([H:8])([H:9])[H:10]>>[C:1]([N+:7]1([H:16])[C-:2]=[C:3]([H:11])[C:4]([C:5]([H:12])([H:13])[H:14])=[C:6]1[H:15])([H:8])([H:9])[H:10]"
C        2.29418476      -0.03400903       0.41552293
C        1.05908269      -0.48005876      -1.06445090
C       -0.13716656      -1.05280937      -0.69330499
C       -1.01105484      -0.10035707      -0.08673904
C       -2.46474648      -0.29897982       0.19466505
C       -0.30354550       1.05331699       0.08374975
N        0.95077489       0.84575190      -0.48137597
H        1.77186653      -0.33641505       1.31839557
H        2.94937255      -0.82686105       0.07361293
H        2.90993842       0.84517741       0.60403249
H       -0.36701082      -2.10175769      -0.82042533
H       -2.92587575       0.60335528       0.59672956
H       -2.60753679      -1.10841367       0.91385226
H       -3.00236648      -0.57901058      -0.71363973
H       -0.55237382       1.96933696       0.59569794
H        1.43645719       1.60173355      -0.93632253
16
Frame=7 idx=008585 GeodesicLength=0.3003387071658824 rxn_smarts="[C:1]([c:2]1[c:3]([H:11])[c:4]([C:5]([H:12])([H:13])[H:14])[c:6]([H:15])[n:7]1[H:16])([H:8])([H:9])[H:10]>>[C:1]([N+:7]1([H:16])[C-:2]=[C:3]([H:11])[C:4]([C:5]([H:12])([H:13])[H:14])=[C:6]1[H:15])([H:8])([H:9])[H:10]"
C        2.31124806      -0.03268159       0.40214810
C        1.05527145      -0.48131602      -1.04332410
C       -0.14015956      -1.05547234      -0.67866998
C       -1.01944004      -0.10084181      -0.07927038
C       -2.47773132      -0.29547133       0.17957455
C       -0.31007123       1.04853303       0.10234920
N        0.94552714       0.84617863      -0.46648130
H        1.81648007      -0.32895441       1.32281621
H        2.96346161      -0.82901324       0.06078911
H        2.93718558       0.84312489       0.57436440
H       -0.36354804      -2.10714992      -0.79405165
H       -2.94192734       0.60779487       0.57599605
H       -2.63339338      -1.10566759       0.89527219
H       -3.00278424      -0.57280785      -0.73692923
H       -0.55764215       1.96126276       0.62070223
H        1.41752339       1.60248192      -0.93528540
16
Frame=8 idx=008585 GeodesicLength=0.3409162384996441 rxn_smarts="[C:1]([c:2]1[c:3]([H:11])[c:4]([C:5]([H:12])([H:13])[H:14])[c:6]([H:15])[n:7]1[H:16])([H:8])([H:9])[H:10]>>[C:1]([N+:7]1([H:16])[C-:2]=[C:3]([H:11])[C:4]([C:5]([H:12])([H:13])[H:14])=[C:6]1[H:15])([H:8])([H:9])[H:10]"
C        2.32714678      -0.03173544       0.38974190
C        1.05207061      -0.48252323      -1.02208018
C       -0.14326754      -1.05753192      -0.66577292
C       -1.02792712      -0.10063406      -0.07380665
C       -2.48980422      -0.29226737       0.16546354
C       -0.31678120       1.04428624       0.11927992
N        0.94077585       0.84665152      -0.45150689
H        1.85972000      -0.32142621       1.32710800
H        2.97656088      -0.83162492       0.04949645
H        2.96300197       0.84046562       0.54582245
H       -0.36070232      -2.11153670      -0.77027167
H       -2.95687712       0.61175439       0.55675324
H       -2.65637669      -1.10301836       0.87810964
H       -3.00364870      -0.56765319      -0.75800900
H       -0.56352293       1.95397570       0.64328528
H        1.39963173       1.60281793      -0.93361311
16
Frame=9 idx=008585 GeodesicLength=0.3808994384633027 rxn_smarts="[C:1]([c:2]1[c:3]([H:11])[c:4]([C:5]([H:12])([H:13])[H:14])[c:6]([H:15])[n:7]1[H:16])([H:8])([H:9])[H:10]>>[C:1]([N+:7]1([H:16])[C-:2]=[C:3]([H:11])[C:4]([C:5]([H:12])([H:13])[H:14])=[C:6]1[H:15])([H:8])([H:9])[H:10]"
C        2.34194400      -0.03117132       0.37840771
C        1.04951765      -0.48362720      -1.00080256
C       -0.14652449      -1.05895597      -0.65480837
C       -1.03648578      -0.09973064      -0.07039550
C       -2.50105019      -0.28942818       0.15242212
C       -0.32368288       1.04065779       0.13439306
N        0.93659637       0.84723481      -0.43653835
H        1.90154725      -0.31390861       1.33134552
H        2.98873495      -0.83469159       0.03981258
H        2.98748036       0.83718039       0.51860323
H       -0.35853369      -2.11497008      -0.74922828
H       -2.97082876       0.61515831       0.53916138
H       -2.67653310      -1.10056572       0.86254040
H       -3.00516415      -0.56360045      -0.77682091
H       -0.57000775       1.94760264       0.66329620
H        1.38299020       1.60281583      -0.93138822
16
Frame=10 idx=008585 GeodesicLength=0.42027827969950654 rxn_smarts="[C:1]([c:2]1[c:3]([H:11])[c:4]([C:5]([H:12])([H:13])[H:14])[c:6]([H:15])[n:7]1[H:16])([H:8])([H:9])[H:10]>>[C:1]([N+:7]1([H:16])[C-:2]=[C:3]([H:11])[C:4]([C:5]([H:12])([H:13])[H:14])=[C:6]1[H:15])([H:8])([H:9])[H:10]"
C        2.35555571      -0.03105697       0.36827393
C        1.04771369      -0.48445238      -0.97959707
C       -0.14989995      -1.05953246      -0.64620544
C       -1.04506153      -0.09797810      -0.06936525
C       -2.51141059      -0.28702921       0.14064914
C       -0.33082583       1.03781021       0.14730852
N        0.93304763       0.84803201      -0.42170082
H        1.94151817      -0.30659928       1.33549657
H        2.99988043      -0.83832435       0.03195079
H        3.01051003       0.83298306       0.49311456
H       -0.35689005      -2.11735064      -0.73109969
H       -2.98379513       0.61787340       0.52346839
H       -2.69345631      -1.09833030       0.84896359
H       -3.00756174      -0.56088951      -0.79300895
H       -0.57715727       1.94228683       0.68037570
H        1.36783273       1.60255769      -0.92862396
16
Frame=11 idx=008585 GeodesicLength=0.4592893717080585 rxn_smarts="[C:1]([c:2]1[c:3]([H:11])[c:4]([C:5]([H:12])([H:13])[H:14])[c:6]([H:15])[n:7]1[H:16])([H:8])([H:9])[H:10]>>[C:1]([N+:7]1([H:16])[C-:2]=[C:3]([H:11])[C:4]([C:5]([H:12])([H:13])[H:14])=[C:6]1[H:15])([H:8])([H:9])[H:10]"
C        2.36846540      -0.03119492       0.35895916
C        1.04632244      -0.48528204      -0.95821186
C       -0.15338357      -1.05966303      -0.63897925
C       -1.05365730      -0.09571408      -0.06982356
C       -2.52127642      -0.28488280       0.12957451
C       -0.33815256       1.03541648       0.15889211
N        0.92989782       0.84887766      -0.40680680
H        1.98079311      -0.29914462       1.33962494
H        3.01045986      -0.84221802       0.02522963
H        3.03264675       0.82839535       0.46839420
H       -0.35580761      -2.11903055      -0.71493953
H       -2.99617348       0.62018723       0.50888956
H       -2.70852041      -1.09624624       0.83650888
H       -3.01053662      -0.55892838      -0.80771505
H       -0.58466036       1.93747947       0.69591890
H        1.35358295       1.60194849      -0.92551583
16
Frame=12 idx=008585 GeodesicLength=0.49804589452286596 rxn_smarts="[C:1]([c:2]1[c:3]([H:11])[c:4]([C:5]([H:12])([H:13])[H:14])[c:6]([H:15])[n:7]1[H:16])([H:8])([H:9])[H:10]>>[C:1]([N+:7]1([H:16])[C-:2]=[C:3]([H:11])[C:4]([C:5]([H:12])([H:13])[H:14])=[C:6]1[H:15])([H:8])([H:9])[H:10]"
C        2.38104532      -0.03138897       0.34997297
C        1.04506534      -0.48625740      -0.93628691
C       -0.15686482      -1.05967084      -0.63210368
C       -1.06223059      -0.09323820      -0.07088622
C       -2.53091249      -0.28276971       0.11862393
C       -0.34556758       1.03311488       0.17011475
N        0.92691841       0.84964229      -0.39156327
H        2.02030721      -0.29135505       1.34342983
H        3.02077181      -0.84610428       0.01886084
H        3.05413731       0.82367561       0.44347531
H       -0.35506959      -2.12038324      -0.69950733
H       -3.00826441       0.62241371       0.49458598
H       -2.72292014      -1.09417484       0.82427461
H       -3.01360804      -0.55712818      -0.82202467
H       -0.59236209       1.93273685       0.71105497
H        1.33955435       1.60088737      -0.92202111
16
Frame=13 idx=008585 GeodesicLength=0.5365595478929697 rxn_smarts="[C:1]([c:2]1[c:3]([H:11])[c:4]([C:5]([H:12])([H:13])[H:14])[c:6]([H:15])[n:7]1[H:16])([H:8])([H:9])[H:10]>>[C:1]([N+:7]1([H:16])[C-:2]=[C:3]([H:11])[C:4]([C:5]([H:12])([H:13])[H:14])=[C:6]1[H:15])([H:8])([H:9])[H:10]"
C        2.39322730      -0.03170338       0.34153066
C        1.04404486      -0.48728937      -0.91394269
C       -0.16041032      -1.05940951      -0.62604288
C       -1.07080245      -0.09042188      -0.07292517
C       -2.54025750      -0.28079012       0.10803082
C       -0.35312909       1.03105859       0.18057926
N        0.92420512       0.85040792      -0.37609603
H        2.05971664      -0.28332744       1.34704164
H        3.03076122      -0.85008698       0.01316692
H        3.07497442       0.81868729       0.41877561
H       -0.35479257      -2.12130216      -0.68530742
H       -3.02001519       0.62441062       0.48089495
H       -2.73621746      -1.09217747       0.81266690
H       -3.01703827      -0.55575373      -0.83551297
H       -0.60033889       1.92824341       0.72533616
H        1.32607216       1.59945421      -0.91819575
16
Frame=14 idx=008585 GeodesicLength=0.5747527400843343 rxn_smarts="[C:1]([c:2]1[c:3]([H:11])[c:4]([C:5]([H:12])([H:13])[H:14])[c:6]([H:15])[n:7]1[H:16])([H:8])([H:9])[H:10]>>[C:1]([N+:7]1([H:16])[C-:2]=[C:3]([H:11])[C:4]([C:5]([H:12])([H:13])[H:14])=[C:6]1[H:15])([H:8])([H:9])[H:10]"
C        2.40475468      -0.03227072       0.33394135
C        1.04339754      -0.48826476      -0.89132140
C       -0.16399735      -1.05861223      -0.62145621
C       -1.07932041      -0.08704194      -0.07648727
C       -2.54911122      -0.27908479       0.09817941
C       -0.36088238       1.02950902       0.18965587
N        0.92185504       0.85127247      -0.36058212
H        2.09836022      -0.27521692       1.35059460
H        3.04016636      -0.85436619       0.00861954
H        3.09493590       0.81315474       0.39492062
H       -0.35499857      -2.12152296      -0.67319233
H       -3.03126821       0.62595365       0.46835191
H       -2.74760187      -1.09032733       0.80231444
H       -3.02110746      -0.55519729      -0.84747986
H       -0.60870954       1.92432134       0.73799225
H        1.31352727       1.59769390      -0.91405080
16
Frame=15 idx=008585 GeodesicLength=0.6127491328341691 rxn_smarts="[C:1]([c:2]1[c:3]([H:11])[c:4]([C:5]([H:12])([H:13])[H:14])[c:6]([H:15])[n:7]1[H:16])([H:8])([H:9])[H:10]>>[C:1]([N+:7]1([H:16])[C-:2]=[C:3]([H:11])[C:4]([C:5]([H:12])([H:13])[H:14])=[C:6]1[H:15])([H:8])([H:9])[H:10]"
C        2.41596157      -0.03294283       0.32688350
C        1.04289836      -0.48934398      -0.86813653
C       -0.16760302      -1.05755802      -0.61756736
C       -1.08779766      -0.08334711      -0.08089242
C       -2.55771417      -0.27750705       0.08865024
C       -0.36875712       1.02818441       0.19809262
N        0.91971774       0.85212433      -0.34479039
H        2.13706415      -0.26680768       1.35397929
H        3.04927971      -0.85874209       0.00469339
H        3.11433069       0.80735241       0.37114557
H       -0.35566805      -2.12131668      -0.66243031
H       -3.04226685       0.62726626       0.45635609
H       -2.75802834      -1.08855467       0.79254088
H       -3.02550656      -0.55502402      -0.85873897
H       -0.61737418       1.92068852       0.74979840
H        1.30146372       1.59552820      -0.90958401
16
Frame=16 idx=008585 GeodesicLength=0.6506369707284849 rxn_smarts="[C:1]([c:2]1[c:3]([H:11])[c:4]([C:5]([H:12])([H:13])[H:14])[c:6]([H:15])[n:7]1[H:16])([H:8])([H:9])[H:10]>>[C:1]([N+:7]1([H:16])[C-:2]=[C:3]([H:11])[C:4]([C:5]([H:12])([H:13])[H:14])=[C:6]1[H:15])([H:8])([H:9])[H:10]"
C        2.42708545      -0.03360180       0.32006856
C        1.04240733      -0.49063101      -0.84411561
C       -0.17119086      -1.05645459      -0.61374432
C       -1.09622430      -0.07952794      -0.08559064
C       -2.56620964      -0.27592194       0.07908221
C       -0.37672104       1.02684228       0.20652509
N        0.91766178       0.85287682      -0.32850484
H        2.17644609      -0.25788565       1.35699045
H        3.05828122      -0.86308576       0.00095865
H        3.13331453       0.80143267       0.34677902
H       -0.35675163      -2.12092149      -0.65230168
H       -3.05315956       0.62853946       0.44440030
H       -2.76821283      -1.08678750       0.78274660
H       -3.02990857      -0.55485155      -0.86995604
H       -0.62629558       1.91709393       0.76140369
H        1.28947760       1.59288407      -0.90474144
