12
Frame=0 idx=007448 GeodesicLength=0.0 rxn_smarts="[O:1]([C:2]([c:3]1[n:4][o:5][c:6]([H:11])[c:7]1[H:12])([H:9])[H:10])[H:8]>>[O:1]([C:2]([C:3]1=[C+:7][C:6]([H:11])([H:12])[O:5][N-:4]1)([H:9])[H:10])[H:8]"
O       -2.40897655       0.74515679      -0.27635365
C       -1.61027457      -0.37261995       0.00088471
C       -0.14099153      -0.08845914      -0.01602734
N        0.29389290       1.05897582      -0.43693020
O        1.63963165       1.06734882      -0.38907831
C        2.01673645      -0.17167124       0.13667552
C        0.91166358      -1.04494747       0.31900625
H       -1.92100537       1.34222515      -0.84951342
H       -1.88051310      -0.74694224       0.99121902
H       -1.80067606      -1.19027438      -0.70814271
H        3.05229295      -0.42109599      -0.05742072
H        1.84821965      -0.17769614       1.28568085
12
Frame=1 idx=007448 GeodesicLength=0.05816705373962611 rxn_smarts="[O:1]([C:2]([c:3]1[n:4][o:5][c:6]([H:11])[c:7]1[H:12])([H:9])[H:10])[H:8]>>[O:1]([C:2]([C:3]1=[C+:7][C:6]([H:11])([H:12])[O:5][N-:4]1)([H:9])[H:10])[H:8]"
O       -2.40873683       0.74381714      -0.28246919
C       -1.60977955      -0.37196747       0.00224684
C       -0.14048566      -0.08795777      -0.02063426
N        0.29288805       1.06041511      -0.44240741
O        1.63749919       1.07654718      -0.37780830
C        2.01825668      -0.16533328       0.13719601
C        0.91422139      -1.03662484       0.31958608
H       -1.92002043       1.33768538      -0.85839908
H       -1.87793186      -0.73853770       0.99606823
H       -1.80235427      -1.19469737      -0.70027140
H        3.04961556      -0.41863532      -0.07352571
H        1.84682774      -0.20471107       1.30041820
12
Frame=2 idx=007448 GeodesicLength=0.1163418127324019 rxn_smarts="[O:1]([C:2]([c:3]1[n:4][o:5][c:6]([H:11])[c:7]1[H:12])([H:9])[H:10])[H:8]>>[O:1]([C:2]([C:3]1=[C+:7][C:6]([H:11])([H:12])[O:5][N-:4]1)([H:9])[H:10])[H:8]"
O       -2.40840967       0.74249911      -0.28855442
C       -1.60921013      -0.37123540       0.00370853
C       -0.13990880      -0.08747677      -0.02533434
N        0.29198204       1.06168640      -0.44840590
O        1.63519291       1.08575679      -0.36646048
C        2.01978908      -0.15872348       0.13812415
C        0.91686331      -1.02831942       0.31988426
H       -1.91899700       1.33304805      -0.86739074
H       -1.87516187      -0.72985835       1.00104496
H       -1.80406500      -1.19909439      -0.69210915
H        3.04669976      -0.41558481      -0.08942683
H        1.84522537      -0.23269773       1.31491995
12
Frame=3 idx=007448 GeodesicLength=0.17452201022769903 rxn_smarts="[O:1]([C:2]([c:3]1[n:4][o:5][c:6]([H:11])[c:7]1[H:12])([H:9])[H:10])[H:8]>>[O:1]([C:2]([C:3]1=[C+:7][C:6]([H:11])([H:12])[O:5][N-:4]1)([H:9])[H:10])[H:8]"
O       -2.40799755       0.74119145      -0.29461090
C       -1.60856453      -0.37042228       0.00525971
C       -0.13926538      -0.08700374      -0.03007924
N        0.29117501       1.06278300      -0.45487791
O        1.63269572       1.09493247      -0.35513003
C        2.02132844      -0.15184217       0.13945456
C        0.91958212      -1.01999655       0.31999209
H       -1.91792488       1.32831635      -0.87645170
H       -1.87223761      -0.72092667       1.00610796
H       -1.80576287      -1.20343826      -0.68368667
H        3.04353838      -0.41194677      -0.10510576
H        1.84343316      -0.26164683       1.32912789
12
Frame=4 idx=007448 GeodesicLength=0.2327184379404265 rxn_smarts="[O:1]([C:2]([c:3]1[n:4][o:5][c:6]([H:11])[c:7]1[H:12])([H:9])[H:10])[H:8]>>[O:1]([C:2]([C:3]1=[C+:7][C:6]([H:11])([H:12])[O:5][N-:4]1)([H:9])[H:10])[H:8]"
O       -2.40752371       0.73988836      -0.30060885
C       -1.60785034      -0.36954629       0.00686468
C       -0.13856656      -0.08651180      -0.03476247
N        0.29045885       1.06371475      -0.46175918
O        1.63001696       1.10398172      -0.34407360
C        2.02287900      -0.14470540       0.14116866
C        0.92236159      -1.01160159       0.32013068
H       -1.91681211       1.32356054      -0.88546184
H       -1.86923502      -0.71187692       1.01116091
H       -1.80737677      -1.20768129      -0.67513977
H        3.04012652      -0.40780116      -0.12052652
H        1.84152159      -0.29142093       1.34300730
12
Frame=5 idx=007448 GeodesicLength=0.2908004980998475 rxn_smarts="[O:1]([C:2]([c:3]1[n:4][o:5][c:6]([H:11])[c:7]1[H:12])([H:9])[H:10])[H:8]>>[O:1]([C:2]([C:3]1=[C+:7][C:6]([H:11])([H:12])[O:5][N-:4]1)([H:9])[H:10])[H:8]"
O       -2.40699014       0.73857919      -0.30649938
C       -1.60706675      -0.36863150       0.00848132
C       -0.13782076      -0.08598721      -0.03929806
N        0.28983084       1.06448516      -0.46895615
O        1.62717072       1.11280693      -0.33360506
C        2.02442929      -0.13731979       0.14327090
C        0.92517536      -1.00308260       0.32050084
H       -1.91565065       1.31885379      -0.89427029
H       -1.86620347      -0.70285974       1.01610170
H       -1.80885524      -1.21176654      -0.66662592
H        3.03643121      -0.40325068      -0.13561757
H        1.83954959      -0.32182699       1.35651767
12
Frame=6 idx=007448 GeodesicLength=0.34892705936001883 rxn_smarts="[O:1]([C:2]([c:3]1[n:4][o:5][c:6]([H:11])[c:7]1[H:12])([H:9])[H:10])[H:8]>>[O:1]([C:2]([C:3]1=[C+:7][C:6]([H:11])([H:12])[O:5][N-:4]1)([H:9])[H:10])[H:8]"
O       -2.40640592       0.73726824      -0.31234532
C       -1.60622063      -0.36766714       0.01014621
C       -0.13702787      -0.08542326      -0.04371407
N        0.28927958       1.06515315      -0.47645808
O        1.62415912       1.12150811      -0.32358912
C        2.02598633      -0.12968341       0.14573007
C        0.92803603      -0.99445236       0.32102121
H       -1.91444737       1.31414727      -0.90302268
H       -1.86313901      -0.69377457       1.02102274
H       -1.81021427      -1.21576451      -0.65803407
H        3.03248677      -0.39823799      -0.15038298
H        1.83750722      -0.35307355       1.36962608
12
Frame=7 idx=007448 GeodesicLength=0.4070601432566467 rxn_smarts="[O:1]([C:2]([c:3]1[n:4][o:5][c:6]([H:11])[c:7]1[H:12])([H:9])[H:10])[H:8]>>[O:1]([C:2]([C:3]1=[C+:7][C:6]([H:11])([H:12])[O:5][N-:4]1)([H:9])[H:10])[H:8]"
O       -2.40578503       0.73592934      -0.31810917
C       -1.60531302      -0.36665582       0.01182674
C       -0.13619372      -0.08479015      -0.04793525
N        0.28879362       1.06571126      -0.48418208
O        1.62100312       1.12994802      -0.31425784
C        2.02754816      -0.12179571       0.14853725
C        0.93093040      -0.98563180       0.32183471
H       -1.91320963       1.30945714      -0.91159988
H       -1.86009312      -0.68471104       1.02581992
H       -1.81139708      -1.21959957      -0.64946492
H        3.02828371      -0.39281714      -0.16476571
H        1.83543258      -0.38504453       1.38229623
12
Frame=8 idx=007448 GeodesicLength=0.4652322501257574 rxn_smarts="[O:1]([C:2]([c:3]1[n:4][o:5][c:6]([H:11])[c:7]1[H:12])([H:9])[H:10])[H:8]>>[O:1]([C:2]([C:3]1=[C+:7][C:6]([H:11])([H:12])[O:5][N-:4]1)([H:9])[H:10])[H:8]"
O       -2.40513884       0.73457748      -0.32380155
C       -1.60435122      -0.36562121       0.01352298
C       -0.13532603      -0.08407557      -0.05191603
N        0.28835706       1.06621534      -0.49208807
O        1.61773323       1.13821112      -0.30572398
C        2.02911320      -0.11365813       0.15166840
C        0.93384528      -0.97662858       0.32302449
H       -1.91194422       1.30483725      -0.92001778
H       -1.85709811      -0.67573117       1.03052065
H       -1.81238693      -1.22331813      -0.64097020
H        3.02382587      -0.38706867      -0.17873518
H        1.83337070      -0.41773973       1.39451628
12
Frame=9 idx=007448 GeodesicLength=0.5232322141281487 rxn_smarts="[O:1]([C:2]([c:3]1[n:4][o:5][c:6]([H:11])[c:7]1[H:12])([H:9])[H:10])[H:8]>>[O:1]([C:2]([C:3]1=[C+:7][C:6]([H:11])([H:12])[O:5][N-:4]1)([H:9])[H:10])[H:8]"
O       -2.40448061       0.73318177      -0.32940640
C       -1.60333945      -0.36455204       0.01521785
C       -0.13442928      -0.08326348      -0.05561081
N        0.28795505       1.06660156      -0.50010056
O        1.61437945       1.14624013      -0.29808335
C        2.03068091      -0.10525487       0.15510678
C        0.93677257      -0.96737183       0.32465822
H       -1.91065934       1.30025317      -0.92819790
H       -1.85419149      -0.66685322       1.03504186
H       -1.81315238      -1.22684805      -0.63257892
H        3.01912741      -0.38104883      -0.19220030
H        1.83133716      -0.45108433       1.40615351
12
Frame=10 idx=007448 GeodesicLength=0.5813305366433136 rxn_smarts="[O:1]([C:2]([c:3]1[n:4][o:5][c:6]([H:11])[c:7]1[H:12])([H:9])[H:10])[H:8]>>[O:1]([C:2]([C:3]1=[C+:7][C:6]([H:11])([H:12])[O:5][N-:4]1)([H:9])[H:10])[H:8]"
O       -2.40379973       0.73175712      -0.33499058
C       -1.60227476      -0.36343548       0.01696545
C       -0.13349722      -0.08236617      -0.05912319
N        0.28758595       1.06694756      -0.50830038
O        1.61091740       1.15417184      -0.29113043
C        2.03224260      -0.09656526       0.15885144
C        0.93972758      -0.95790456       0.32658540
H       -1.90935761       1.29565521      -0.93633615
H       -1.85129953      -0.65792239       1.03954370
H       -1.81376239      -1.23030226      -0.62412425
H        3.01422371      -0.37462717      -0.20514468
H        1.82929400      -0.48540845       1.41720368
12
Frame=11 idx=007448 GeodesicLength=0.6393647953033544 rxn_smarts="[O:1]([C:2]([c:3]1[n:4][o:5][c:6]([H:11])[c:7]1[H:12])([H:9])[H:10])[H:8]>>[O:1]([C:2]([C:3]1=[C+:7][C:6]([H:11])([H:12])[O:5][N-:4]1)([H:9])[H:10])[H:8]"
O       -2.40312141       0.73029266      -0.34049676
C       -1.60116596      -0.36229155       0.01872818
C       -0.13254173      -0.08135085      -0.06235380
N        0.28722597       1.06723718      -0.51663642
O        1.60740426       1.16192577      -0.28513671
C        2.03380403      -0.08759031       0.16289266
C        0.94268865      -0.94815605       0.32899176
H       -1.90805911       1.29111052      -0.94428252
H       -1.84849682      -0.64909619       1.04392389
H       -1.81415359      -1.23361726      -0.61575858
H        3.00911987      -0.36794518      -0.21748303
H        1.82729583      -0.52051875       1.42761133
12
Frame=12 idx=007448 GeodesicLength=0.6974246928184232 rxn_smarts="[O:1]([C:2]([c:3]1[n:4][o:5][c:6]([H:11])[c:7]1[H:12])([H:9])[H:10])[H:8]>>[O:1]([C:2]([C:3]1=[C+:7][C:6]([H:11])([H:12])[O:5][N-:4]1)([H:9])[H:10])[H:8]"
O       -2.40243021       0.72878123      -0.34600292
C       -1.60001094      -0.36108744       0.02056005
C       -0.13155236      -0.08024404      -0.06540585
N        0.28689354       1.06745644      -0.52514335
O        1.60379900       1.16963235      -0.27984488
C        2.03534543      -0.07827858       0.16723407
C        0.94567457      -0.93814730       0.33171982
H       -1.90675235       1.28650464      -0.95221762
H       -1.84571536      -0.64016032       1.04830162
H       -1.81439974      -1.23685822      -0.60726963
H        3.00386757      -0.36086354      -0.22916610
H        1.82528085      -0.55673522       1.43723481
12
Frame=13 idx=007448 GeodesicLength=0.7554270817729655 rxn_smarts="[O:1]([C:2]([c:3]1[n:4][o:5][c:6]([H:11])[c:7]1[H:12])([H:9])[H:10])[H:8]>>[O:1]([C:2]([C:3]1=[C+:7][C:6]([H:11])([H:12])[O:5][N-:4]1)([H:9])[H:10])[H:8]"
O       -2.40175193       0.72721527      -0.35145861
C       -1.59881792      -0.35985114       0.02242073
C       -0.13054825      -0.07898812      -0.06813459
N        0.28654717       1.06762580      -0.53378898
O        1.60017033       1.17720848      -0.27553413
C        2.03687635      -0.06864600       0.17185357
C        0.94865088      -0.92779177       0.33500864
H       -1.90545797       1.28192574      -0.95999924
H       -1.84305244      -0.63130610       1.05257298
H       -1.81440793      -1.23997788      -0.59884181
H        2.99844739      -0.35355137      -0.24015668
H        1.82334431      -0.59386290       1.44605813
12
Frame=14 idx=007448 GeodesicLength=0.8134451888483628 rxn_smarts="[O:1]([C:2]([c:3]1[n:4][o:5][c:6]([H:11])[c:7]1[H:12])([H:9])[H:10])[H:8]>>[O:1]([C:2]([C:3]1=[C+:7][C:6]([H:11])([H:12])[O:5][N-:4]1)([H:9])[H:10])[H:8]"
O       -2.40108234       0.72558690      -0.35695707
C       -1.59759072      -0.35854638       0.02436847
C       -0.12952029      -0.07760549      -0.07063300
N        0.28620342       1.06773362      -0.54261550
O        1.59647047       1.18478318      -0.27193120
C        2.03838708      -0.05863840       0.17677508
C        0.95164196      -0.91710796       0.33871897
H       -1.90417291       1.27725262      -0.96783212
H       -1.84045107      -0.62230669       1.05686827
H       -1.81425190      -1.24304065      -0.59025422
H        2.99292043      -0.34586225      -0.25041383
H        1.82144588      -0.63224850       1.45390614
12
Frame=15 idx=007448 GeodesicLength=0.8714657320911959 rxn_smarts="[O:1]([C:2]([c:3]1[n:4][o:5][c:6]([H:11])[c:7]1[H:12])([H:9])[H:10])[H:8]>>[O:1]([C:2]([C:3]1=[C+:7][C:6]([H:11])([H:12])[O:5][N-:4]1)([H:9])[H:10])[H:8]"
O       -2.40039910       0.72388680      -0.36258411
C       -1.59632294      -0.35713808       0.02645778
C       -0.12846437      -0.07611571      -0.07297819
N        0.28586601       1.06777151      -0.55166595
O        1.59264927       1.19245982      -0.26881024
C        2.03985524      -0.04820346       0.18205231
C        0.95465675      -0.90611342       0.34273497
H       -1.90288129       1.27237248      -0.97589737
H       -1.83784887      -0.61294908       1.06129592
H       -1.81398688      -1.24610686      -0.58129512
H        2.98731244      -0.33765394      -0.25986477
H        1.81956375      -0.67221005       1.46055476
12
Frame=16 idx=007448 GeodesicLength=0.9294551757730439 rxn_smarts="[O:1]([C:2]([c:3]1[n:4][o:5][c:6]([H:11])[c:7]1[H:12])([H:9])[H:10])[H:8]>>[O:1]([C:2]([C:3]1=[C+:7][C:6]([H:11])([H:12])[O:5][N-:4]1)([H:9])[H:10])[H:8]"
O       -2.39972133       0.72208764      -0.36833768
C       -1.59502054      -0.35563626       0.02866059
C       -0.12739348      -0.07446368      -0.07502224
N        0.28551303       1.06773601      -0.56086277
O        1.58874448       1.20017435      -0.26634612
C        2.04127610      -0.03733998       0.18765121
C        0.95766289      -0.89470081       0.34730796
H       -1.90157897       1.26731249      -0.98410858
H       -1.83535551      -0.60334188       1.06576493
H       -1.81350534      -1.24913039      -0.57208263
H        2.98160626      -0.32907039      -0.26851589
H        1.81777240      -0.71362712       1.46589121
