21
Frame=0 idx=011541 GeodesicLength=0.0 rxn_smarts="[C:1]([C@@:2]1([H:11])[C:3]([H:12])([H:13])[C@:4]([C:5]([H:15])([H:16])[H:17])([H:14])[C@:6]1([C:7]([H:19])([H:20])[H:21])[H:18])([H:8])([H:9])[H:10]>>[C:1]([C:2][C@@:6]([C:4]([C:3]([H:11])([H:12])[H:13])([C:5]([H:15])([H:16])[H:17])[H:14])([C:7]([H:19])([H:20])[H:21])[H:18])([H:8])([H:9])[H:10]"
C        2.43826059       0.00422334       0.00244266
C        1.26659594      -0.22358806      -0.89591990
C       -0.09625935      -1.54323882       0.08704643
C       -1.00431346      -0.50457386      -0.55462259
C       -2.31944652      -0.23639328       0.15226947
C        0.02216138       0.64084792      -0.67054039
C        0.02046964       1.58026602       0.53575848
H        2.23708723       0.25016352       1.05299979
H        3.15509234      -0.81617369      -0.04727092
H        2.93768284       0.87849037      -0.43480661
H        0.84547412      -1.48320385      -0.70900568
H       -0.36770095      -2.59416782      -0.03586974
H        0.17007255      -1.33605751       1.12191304
H       -1.21079574      -0.84800855      -1.57214754
H       -2.16899453       0.07406453       1.18825516
H       -2.88841138       0.54681899      -0.35368641
H       -2.93518000      -1.13901094       0.16485737
H       -0.15180256       1.24770106      -1.56545420
H        0.85104927       2.28695144       0.48258869
H        0.10066469       1.05058161       1.48802391
H       -0.90170603       2.16430763       0.56316889
21
Frame=1 idx=011541 GeodesicLength=0.05612622018184708 rxn_smarts="[C:1]([C@@:2]1([H:11])[C:3]([H:12])([H:13])[C@:4]([C:5]([H:15])([H:16])[H:17])([H:14])[C@:6]1([C:7]([H:19])([H:20])[H:21])[H:18])([H:8])([H:9])[H:10]>>[C:1]([C:2][C@@:6]([C:4]([C:3]([H:11])([H:12])[H:13])([C:5]([H:15])([H:16])[H:17])[H:14])([C:7]([H:19])([H:20])[H:21])[H:18])([H:8])([H:9])[H:10]"
C        2.44667196       0.01242895      -0.00394146
C        1.26493430      -0.22760799      -0.88528567
C       -0.10005191      -1.54448870       0.09143338
C       -1.00592354      -0.50538352      -0.55429832
C       -2.32399238      -0.23543281       0.14615718
C        0.02330581       0.63864117      -0.66340331
C        0.02161762       1.57747398       0.54281658
H        2.25366589       0.26544569       1.04635947
H        3.16614286      -0.80573408      -0.05318759
H        2.93975785       0.88453515      -0.45312290
H        0.84779183      -1.50228010      -0.71683305
H       -0.38152034      -2.59353178      -0.02533782
H        0.15363382      -1.33904146       1.13030641
H       -1.20822881      -0.84718486      -1.57323291
H       -2.17829560       0.07336677       1.18336252
H       -2.88879066       0.54899146      -0.36273212
H       -2.94115968      -1.13710826       0.15529467
H       -0.14280789       1.24382329      -1.56140010
H        0.84915371       2.28753271       0.48768422
H        0.10683018       1.04779901       1.49463512
H       -0.90273501       2.15775540       0.57472570
21
Frame=2 idx=011541 GeodesicLength=0.1124474048168791 rxn_smarts="[C:1]([C@@:2]1([H:11])[C:3]([H:12])([H:13])[C@:4]([C:5]([H:15])([H:16])[H:17])([H:14])[C@:6]1([C:7]([H:19])([H:20])[H:21])[H:18])([H:8])([H:9])[H:10]>>[C:1]([C:2][C@@:6]([C:4]([C:3]([H:11])([H:12])[H:13])([C:5]([H:15])([H:16])[H:17])[H:14])([C:7]([H:19])([H:20])[H:21])[H:18])([H:8])([H:9])[H:10]"
C        2.45517060       0.02104743      -0.01070287
C        1.26345246      -0.23215323      -0.87358348
C       -0.10408516      -1.54593618       0.09617553
C       -1.00747389      -0.50624212      -0.55384365
C       -2.32854071      -0.23431105       0.13977698
C        0.02462690       0.63617958      -0.65590578
C        0.02281522       1.57442274       0.55026530
H        2.27082420       0.28216175       1.03886802
H        3.17745071      -0.79467636      -0.05914126
H        2.94113621       0.89025411      -0.47285477
H        0.84992221      -1.52151143      -0.72430204
H       -0.39531895      -2.59284877      -0.01542861
H        0.13587724      -1.34236229       1.13898315
H       -1.20530862      -0.84639761      -1.57416538
H       -2.18785352       0.07284679       1.17817496
H       -2.88885513       0.55141155      -0.37213638
H       -2.94719484      -1.13494751       0.14530416
H       -0.13334899       1.23953621      -1.55687821
H        0.84715419       2.28796779       0.49309664
H        0.11322363       1.04475456       1.50157654
H       -0.90367375       2.15080407       0.58672116
21
Frame=3 idx=011541 GeodesicLength=0.1686983796786743 rxn_smarts="[C:1]([C@@:2]1([H:11])[C:3]([H:12])([H:13])[C@:4]([C:5]([H:15])([H:16])[H:17])([H:14])[C@:6]1([C:7]([H:19])([H:20])[H:21])[H:18])([H:8])([H:9])[H:10]>>[C:1]([C:2][C@@:6]([C:4]([C:3]([H:11])([H:12])[H:13])([C:5]([H:15])([H:16])[H:17])[H:14])([C:7]([H:19])([H:20])[H:21])[H:18])([H:8])([H:9])[H:10]"
C        2.46366572       0.02974956      -0.01756575
C        1.26200098      -0.23677889      -0.86166276
C       -0.10816513      -1.54742518       0.10098237
C       -1.00900496      -0.50710639      -0.55333357
C       -2.33309079      -0.23315452       0.13335422
C        0.02599502       0.63369591      -0.64832448
C        0.02403502       1.57133934       0.55779420
H        2.28803889       0.29911640       1.03121332
H        3.18872698      -0.78362822      -0.06519118
H        2.94245716       0.89596036      -0.49274207
H        0.85198850      -1.54078359      -0.73169668
H       -0.40905970      -2.59212347      -0.00562335
H        0.11791936      -1.34571950       1.14768230
H       -1.20232846      -0.84563511      -1.57508276
H       -2.19748350       0.07239013       1.17292132
H       -2.88887863       0.55384175      -0.38163741
H       -2.95320855      -1.13279138       0.13528361
H       -0.12378539       1.23519309      -1.55231661
H        0.84514624       2.28838231       0.49859831
H        0.11968111       1.04168581       1.50857164
H       -0.90464987       2.14379157       0.59877533
21
Frame=4 idx=011541 GeodesicLength=0.2249575809960572 rxn_smarts="[C:1]([C@@:2]1([H:11])[C:3]([H:12])([H:13])[C@:4]([C:5]([H:15])([H:16])[H:17])([H:14])[C@:6]1([C:7]([H:19])([H:20])[H:21])[H:18])([H:8])([H:9])[H:10]>>[C:1]([C:2][C@@:6]([C:4]([C:3]([H:11])([H:12])[H:13])([C:5]([H:15])([H:16])[H:17])[H:14])([C:7]([H:19])([H:20])[H:21])[H:18])([H:8])([H:9])[H:10]"
C        2.47218463       0.03866743      -0.02465849
C        1.26063810      -0.24164502      -0.84919918
C       -0.11236134      -1.54900570       0.10598433
C       -1.01049902      -0.50799883      -0.55275915
C       -2.33764135      -0.23192311       0.12678875
C        0.02745468       0.63109468      -0.64055111
C        0.02528851       1.56812762       0.56553708
H        2.30549851       0.31680560       1.02309102
H        3.20006110      -0.77231881      -0.07125714
H        2.94344573       0.90150736      -0.51331210
H        0.85396065      -1.56015049      -0.73887988
H       -0.42278077      -2.59138027       0.00389573
H        0.09934604      -1.34923099       1.15648505
H       -1.19916558      -0.84490160      -1.57592296
H       -2.20724223       0.07202188       1.16751504
H       -2.88874341       0.55638501      -0.39132888
H       -2.95925169      -1.13051120       0.12503923
H       -0.11397311       1.23066941      -1.54755366
H        0.84308847       2.28872639       0.50427537
H        0.12626651       1.03848047       1.51574025
H       -0.90557444       2.13658019       0.61107068
21
Frame=5 idx=011541 GeodesicLength=0.2812200944229743 rxn_smarts="[C:1]([C@@:2]1([H:11])[C:3]([H:12])([H:13])[C@:4]([C:5]([H:15])([H:16])[H:17])([H:14])[C@:6]1([C:7]([H:19])([H:20])[H:21])[H:18])([H:8])([H:9])[H:10]>>[C:1]([C:2][C@@:6]([C:4]([C:3]([H:11])([H:12])[H:13])([C:5]([H:15])([H:16])[H:17])[H:14])([C:7]([H:19])([H:20])[H:21])[H:18])([H:8])([H:9])[H:10]"
C        2.48071443       0.04778082      -0.03198338
C        1.25936946      -0.24674877      -0.83615659
C       -0.11668628      -1.55067998       0.11120276
C       -1.01194767      -0.50891865      -0.55211504
C       -2.34219356      -0.23061011       0.12005488
C        0.02901215       0.62837603      -0.63256675
C        0.02656727       1.56478095       0.57351503
H        2.32322526       0.33523600       1.01447584
H        3.21148202      -0.76071780      -0.07742452
H        2.94410716       0.90689330      -0.53463229
H        0.85583795      -1.57962728      -0.74581762
H       -0.43651095      -2.59062210       0.01317807
H        0.08014113      -1.35288059       1.16540771
H       -1.19578223      -0.84419906      -1.57669542
H       -2.21715734       0.07174911       1.16192682
H       -2.88843806       0.55904987      -0.40124674
H       -2.96532721      -1.12810711       0.11452969
H       -0.10390375       1.22596064      -1.54254709
H        0.84096672       2.28899656       0.51015729
H        0.13298755       1.03513310       1.52310151
H       -0.90646403       2.12915507       0.62363585
21
Frame=6 idx=011541 GeodesicLength=0.3374966070260125 rxn_smarts="[C:1]([C@@:2]1([H:11])[C:3]([H:12])([H:13])[C@:4]([C:5]([H:15])([H:16])[H:17])([H:14])[C@:6]1([C:7]([H:19])([H:20])[H:21])[H:18])([H:8])([H:9])[H:10]>>[C:1]([C:2][C@@:6]([C:4]([C:3]([H:11])([H:12])[H:13])([C:5]([H:15])([H:16])[H:17])[H:14])([C:7]([H:19])([H:20])[H:21])[H:18])([H:8])([H:9])[H:10]"
C        2.48924758       0.05710467      -0.03956221
C        1.25820342      -0.25208132      -0.82250418
C       -0.12114380      -1.55244670       0.11664902
C       -1.01334289      -0.50986588      -0.55139259
C       -2.34673878      -0.22920995       0.11314893
C        0.03067296       0.62554018      -0.62435862
C        0.02787606       1.56129896       0.58174062
H        2.34119531       0.35444197       1.00531525
H        3.22297331      -0.74883505      -0.08367816
H        2.94439579       0.91206138      -0.55669848
H        0.85763163      -1.59920499      -0.75252962
H       -0.45023905      -2.58985371       0.02221263
H        0.06030162      -1.35666768       1.17443864
H       -1.19216909      -0.84353320      -1.57739064
H       -2.22722832       0.07158240       1.15614881
H       -2.88794730       0.56183541      -0.41140156
H       -2.97142102      -1.12557717       0.10375558
H       -0.09357248       1.22106251      -1.53729210
H        0.83878630       2.28919009       0.51626058
H        0.13984395       1.03164560       1.53066514
H       -0.90732520       2.12151250       0.63647297
21
Frame=7 idx=011541 GeodesicLength=0.39378382386368993 rxn_smarts="[C:1]([C@@:2]1([H:11])[C:3]([H:12])([H:13])[C@:4]([C:5]([H:15])([H:16])[H:17])([H:14])[C@:6]1([C:7]([H:19])([H:20])[H:21])[H:18])([H:8])([H:9])[H:10]>>[C:1]([C:2][C@@:6]([C:4]([C:3]([H:11])([H:12])[H:13])([C:5]([H:15])([H:16])[H:17])[H:14])([C:7]([H:19])([H:20])[H:21])[H:18])([H:8])([H:9])[H:10]"
C        2.49776993       0.06663878      -0.04741039
C        1.25714839      -0.25763602      -0.80820896
C       -0.12573822      -1.55430420       0.12233903
C       -1.01467633      -0.51084095      -0.55058803
C       -2.35127049      -0.22771861       0.10605890
C        0.03244192       0.62258595      -0.61591305
C        0.02921436       1.55767851       0.59022946
H        2.35939607       0.37444546       0.99556500
H        3.23452871      -0.73666286      -0.09002802
H        2.94428269       0.91697934      -0.57954103
H        0.85935037      -1.61888190      -0.75901081
H       -0.46396795      -2.58908086       0.03100710
H        0.03981691      -1.36058803       1.18357298
H       -1.18830519      -0.84290704      -1.57800349
H       -2.23745921       0.07152811       1.15016710
H       -2.88725528       0.56474511      -0.42180876
H       -2.97752637      -1.12291590       0.09269910
H       -0.08297199       1.21597103      -1.53177134
H        0.83654393       2.28930463       0.52260266
H        0.14683793       1.02801547       1.53844505
H       -0.90816018       2.11364400       0.64959750
21
Frame=8 idx=011541 GeodesicLength=0.45008188252129366 rxn_smarts="[C:1]([C@@:2]1([H:11])[C:3]([H:12])([H:13])[C@:4]([C:5]([H:15])([H:16])[H:17])([H:14])[C@:6]1([C:7]([H:19])([H:20])[H:21])[H:18])([H:8])([H:9])[H:10]>>[C:1]([C:2][C@@:6]([C:4]([C:3]([H:11])([H:12])[H:13])([C:5]([H:15])([H:16])[H:17])[H:14])([C:7]([H:19])([H:20])[H:21])[H:18])([H:8])([H:9])[H:10]"
C        2.50626549       0.07638153      -0.05554383
C        1.25621399      -0.26340536      -0.79323339
C       -0.13047377      -1.55625025       0.12828952
C       -1.01593798      -0.51184378      -0.54969761
C       -2.35578027      -0.22613148       0.09877143
C        0.03432427       0.61951232      -0.60721431
C        0.03058168       1.55391640       0.59899964
H        2.37781072       0.39527631       0.98516934
H        3.24614314      -0.72419029      -0.09648382
H        2.94372734       0.92159957      -0.60319006
H        0.86100455      -1.63865495      -0.76525684
H       -0.47769852      -2.58830844       0.03956794
H        0.01867595      -1.36463732       1.19280651
H       -1.18416702      -0.84232340      -1.57852814
H       -2.24785385       0.07159233       1.14396670
H       -2.88634316       0.56778355      -0.43248474
H       -2.98363520      -1.12011672       0.08133986
H       -0.07209401       1.21068178      -1.52596591
H        0.83423631       2.28933794       0.52920319
H        0.15397173       1.02424012       1.54645740
H       -0.90897141       2.10554015       0.66302713
21
Frame=9 idx=011541 GeodesicLength=0.5063867891064461 rxn_smarts="[C:1]([C@@:2]1([H:11])[C:3]([H:12])([H:13])[C@:4]([C:5]([H:15])([H:16])[H:17])([H:14])[C@:6]1([C:7]([H:19])([H:20])[H:21])[H:18])([H:8])([H:9])[H:10]>>[C:1]([C:2][C@@:6]([C:4]([C:3]([H:11])([H:12])[H:13])([C:5]([H:15])([H:16])[H:17])[H:14])([C:7]([H:19])([H:20])[H:21])[H:18])([H:8])([H:9])[H:10]"
C        2.51471729       0.08632851      -0.06397739
C        1.25540764      -0.26937772      -0.77754706
C       -0.13535305      -1.55828121       0.13451396
C       -1.01711873      -0.51287339      -0.54871834
C       -2.36026008      -0.22444587       0.09127576
C        0.03632390       0.61632016      -0.59824871
C        0.03197712       1.55001125       0.60806716
H        2.39642010       0.41695977       0.97407564
H        3.25780333      -0.71141233      -0.10304690
H        2.94270088       0.92587254      -0.62767033
H        0.86260450      -1.65851687      -0.77126542
H       -0.49142751      -2.58754040       0.04790095
H       -0.00312725      -1.36881074       1.20213252
H       -1.17973331      -0.84178340      -1.57896004
H       -2.25841409       0.07177993       1.13753417
H       -2.88519616       0.57095236      -0.44344219
H       -2.98973890      -1.11717606       0.06966091
H       -0.06093126       1.20519146      -1.51985803
H        0.83185947       2.28928960       0.53607929
H        0.16124809       1.02031934       1.55471602
H       -0.90976200       2.09719307       0.67677805
21
Frame=10 idx=011541 GeodesicLength=0.5626965317810171 rxn_smarts="[C:1]([C@@:2]1([H:11])[C:3]([H:12])([H:13])[C@:4]([C:5]([H:15])([H:16])[H:17])([H:14])[C@:6]1([C:7]([H:19])([H:20])[H:21])[H:18])([H:8])([H:9])[H:10]>>[C:1]([C:2][C@@:6]([C:4]([C:3]([H:11])([H:12])[H:13])([C:5]([H:15])([H:16])[H:17])[H:14])([C:7]([H:19])([H:20])[H:21])[H:18])([H:8])([H:9])[H:10]"
C        2.52310340       0.09647784      -0.07273492
C        1.25473905      -0.27554261      -0.76111106
C       -0.14037533      -1.56039262       0.14102901
C       -1.01820610      -0.51392995      -0.54764506
C       -2.36469653      -0.22265774       0.08355999
C        0.03844646       0.61301007      -0.58900108
C        0.03339975       1.54596225       0.61744881
H        2.41519149       0.43951479       0.96222491
H        3.26949330      -0.69832493      -0.10972535
H        2.94115846       0.92974205      -0.65299614
H        0.86416437      -1.67845943      -0.77703709
H       -0.50515060      -2.58677921       0.05601247
H       -0.02559915      -1.37310025       1.21154156
H       -1.17497849      -0.84129072      -1.57929114
H       -2.26913901       0.07209790       1.13085451
H       -2.88379074       0.57425532      -0.45469411
H       -2.99582170      -1.11408880       0.05764369
H       -0.04948091       1.19949900      -1.51343094
H        0.82941137       2.28915762       0.54325016
H        0.16866607       1.01625456       1.56323691
H       -0.91053516       2.08859485       0.69086487
21
Frame=11 idx=011541 GeodesicLength=0.6190078793943953 rxn_smarts="[C:1]([C@@:2]1([H:11])[C:3]([H:12])([H:13])[C@:4]([C:5]([H:15])([H:16])[H:17])([H:14])[C@:6]1([C:7]([H:19])([H:20])[H:21])[H:18])([H:8])([H:9])[H:10]>>[C:1]([C:2][C@@:6]([C:4]([C:3]([H:11])([H:12])[H:13])([C:5]([H:15])([H:16])[H:17])[H:14])([C:7]([H:19])([H:20])[H:21])[H:18])([H:8])([H:9])[H:10]"
C        2.53139785       0.10681754      -0.08183247
C        1.25421778      -0.28188585      -0.74388868
C       -0.14554011      -1.56257901       0.14784801
C       -1.01918773      -0.51501196      -0.54647393
C       -2.36907723      -0.22076452       0.07561325
C        0.04069633       0.60958466      -0.57945640
C        0.03484786       1.54176965       0.62716204
H        2.43409414       0.46297310       0.94954652
H        3.28119153      -0.68493259      -0.11651856
H        2.93906414       0.93314845      -0.67918364
H        0.86569800      -1.69847065      -0.78257393
H       -0.51886093      -2.58602670       0.06390751
H       -0.04874327      -1.37749914       1.22102340
H       -1.16987690      -0.84084642      -1.57951486
H       -2.28002707       0.07255139       1.12391346
H       -2.88210672       0.57769337      -0.46625284
H       -3.00186881      -1.11085203       0.04527050
H       -0.03773776       1.19360352      -1.50666496
H        0.82688815       2.28894185       0.55073510
H        0.17622605       1.01204768       1.57203607
H       -0.91129530       2.07973765       0.70530442
21
Frame=12 idx=011541 GeodesicLength=0.675316302351445 rxn_smarts="[C:1]([C@@:2]1([H:11])[C:3]([H:12])([H:13])[C@:4]([C:5]([H:15])([H:16])[H:17])([H:14])[C@:6]1([C:7]([H:19])([H:20])[H:21])[H:18])([H:8])([H:9])[H:10]>>[C:1]([C:2][C@@:6]([C:4]([C:3]([H:11])([H:12])[H:13])([C:5]([H:15])([H:16])[H:17])[H:14])([C:7]([H:19])([H:20])[H:21])[H:18])([H:8])([H:9])[H:10]"
C        2.53957315       0.11733632      -0.09128713
C        1.25385320      -0.28838967      -0.72584462
C       -0.15084313      -1.56483338       0.15498432
C       -1.02004985      -0.51611789      -0.54520024
C       -2.37338674      -0.21876375       0.06742527
C        0.04307793       0.60604821      -0.56959955
C        0.03631907       1.53743567       0.63722400
H        2.45308304       0.48735087       0.93597359
H        3.29287477      -0.67123858      -0.12342428
H        2.93637632       0.93602107      -0.70625095
H        0.86722246      -1.71853453      -0.78787926
H       -0.53254592      -2.58528290       0.07159056
H       -0.07256211      -1.38199730       1.23056591
H       -1.16440184      -0.84045120      -1.57962345
H       -2.29107415       0.07314491       1.11669702
H       -2.88012122       0.58126686      -0.47812923
H       -3.00786088      -1.10746343       0.03252456
H       -0.02569967       1.18750726      -1.49954248
H        0.82428706       2.28864285       0.55855417
H        0.18392604       1.00770336       1.58112985
H       -0.91204755       2.07061526       0.72011196
21
Frame=13 idx=011541 GeodesicLength=0.731617735511052 rxn_smarts="[C:1]([C@@:2]1([H:11])[C:3]([H:12])([H:13])[C@:4]([C:5]([H:15])([H:16])[H:17])([H:14])[C@:6]1([C:7]([H:19])([H:20])[H:21])[H:18])([H:8])([H:9])[H:10]>>[C:1]([C:2][C@@:6]([C:4]([C:3]([H:11])([H:12])[H:13])([C:5]([H:15])([H:16])[H:17])[H:14])([C:7]([H:19])([H:20])[H:21])[H:18])([H:8])([H:9])[H:10]"
C        2.54759643       0.12801790      -0.10111695
C        1.25365441      -0.29503161      -0.70694749
C       -0.15627769      -1.56714601       0.16244975
C       -1.02077784      -0.51724513      -0.54381959
C       -2.37760868      -0.21665440       0.05898731
C        0.04559437       0.60240714      -0.55941702
C        0.03781074       1.53296496       0.64765014
H        2.47210714       0.51265763       0.92143845
H        3.30451255      -0.65725235      -0.13043652
H        2.93305815       0.93828328      -0.73420197
H        0.86875636      -1.73863012      -0.79296246
H       -0.54618694      -2.58454611       0.07906587
H       -0.09705117      -1.38658388       1.24015383
H       -1.15852657      -0.84010500      -1.57960875
H       -2.30227355       0.07388381       1.10919235
H       -2.87781386       0.58497362      -0.49033120
H       -3.01377672      -1.10392351       0.01939301
H       -0.01336806       1.18121369      -1.49204738
H        0.82160513       2.28826310       0.56672488
H        0.19176343       1.00322967       1.59053314
H       -0.91279763       2.06122332       0.73530060
21
Frame=14 idx=011541 GeodesicLength=0.7879085133749548 rxn_smarts="[C:1]([C@@:2]1([H:11])[C:3]([H:12])([H:13])[C@:4]([C:5]([H:15])([H:16])[H:17])([H:14])[C@:6]1([C:7]([H:19])([H:20])[H:21])[H:18])([H:8])([H:9])[H:10]>>[C:1]([C:2][C@@:6]([C:4]([C:3]([H:11])([H:12])[H:13])([C:5]([H:15])([H:16])[H:17])[H:14])([C:7]([H:19])([H:20])[H:21])[H:18])([H:8])([H:9])[H:10]"
C        2.55543091       0.13884006      -0.11133601
C        1.25363027      -0.30178635      -0.68716775
C       -0.16183409      -1.56950641       0.17025350
C       -1.02135598      -0.51839061      -0.54232762
C       -2.38172363      -0.21443590       0.05029237
C        0.04824855       0.59866965      -0.54889557
C        0.03931946       1.52836336       0.65845598
H        2.49110575       0.53891137       0.90585839
H        3.31607119      -0.64298904      -0.13754242
H        2.92906913       0.93984682      -0.76303410
H        0.87032168      -1.75873299      -0.79783623
H       -0.55976445      -2.58381366       0.08633626
H       -0.12220391      -1.39124653       1.24977042
H       -1.15222421      -0.83980704      -1.57946244
H       -2.31361552       0.07477091       1.10138751
H       -2.87516031       0.58881156      -0.50286374
H       -3.01959028      -1.10023304       0.00586261
H       -0.00074603       1.17472947      -1.48416233
H        0.81884065       2.28780463       0.57526649
H        0.19973285       0.99863578       1.60026138
H       -0.91355204       2.05155793       0.75088332
21
Frame=15 idx=011541 GeodesicLength=0.8441844330286971 rxn_smarts="[C:1]([C@@:2]1([H:11])[C:3]([H:12])([H:13])[C@:4]([C:5]([H:15])([H:16])[H:17])([H:14])[C@:6]1([C:7]([H:19])([H:20])[H:21])[H:18])([H:8])([H:9])[H:10]>>[C:1]([C:2][C@@:6]([C:4]([C:3]([H:11])([H:12])[H:13])([C:5]([H:15])([H:16])[H:17])[H:14])([C:7]([H:19])([H:20])[H:21])[H:18])([H:8])([H:9])[H:10]"
C        2.56303492       0.14977369      -0.12195690
C        1.25378930      -0.30862303      -0.66648146
C       -0.16749908      -1.57190088       0.17840394
C       -1.02176748      -0.51955018      -0.54071989
C       -2.38571076      -0.21210868       0.04133554
C        0.05104206       0.59484664      -0.53802371
C        0.04084121       1.52364009       0.66965455
H        2.51000571       0.56610966       0.88915656
H        3.32751208      -0.62846813      -0.14472592
H        2.92437277       0.94062305      -0.79273745
H        0.87194258      -1.77881313      -0.80251850
H       -0.57325049      -2.58308053       0.09340445
H       -0.14800664      -1.39597087       1.25939496
H       -1.14546800      -0.83955572      -1.57917501
H       -2.32508735       0.07580981       1.09327197
H       -2.87213897       0.59277556      -0.51572908
H       -3.02527309      -1.09639555      -0.00807464
H        0.01215963       1.16806371      -1.47587295
H        0.81599273       2.28727085       0.58419585
H        0.20782667       0.99393493       1.61032838
H       -0.91431781       2.04161869       0.76686932
21
Frame=16 idx=011541 GeodesicLength=0.900441088445525 rxn_smarts="[C:1]([C@@:2]1([H:11])[C:3]([H:12])([H:13])[C@:4]([C:5]([H:15])([H:16])[H:17])([H:14])[C@:6]1([C:7]([H:19])([H:20])[H:21])[H:18])([H:8])([H:9])[H:10]>>[C:1]([C:2][C@@:6]([C:4]([C:3]([H:11])([H:12])[H:13])([C:5]([H:15])([H:16])[H:17])[H:14])([C:7]([H:19])([H:20])[H:21])[H:18])([H:8])([H:9])[H:10]"
C        2.57036413       0.16078740      -0.13298987
C        1.25413838      -0.31550481      -0.64487368
C       -0.17325446      -1.57431280       0.18690580
C       -1.02199505      -0.52071843      -0.53899258
C       -2.38954701      -0.20967523       0.03211538
C        0.05397450       0.59095327      -0.52679301
C        0.04237105       1.51880778       0.68125663
H        2.52872020       0.59424380       0.87125396
H        3.33878953      -0.61371729      -0.15195988
H        2.91893479       0.94050450      -0.82328919
H        0.87364645      -1.79883536      -0.80703383
H       -0.58660947      -2.58233901       0.10027123
H       -0.17443737      -1.40073951       1.26900310
H       -1.13823307      -0.83934782      -1.57873774
H       -2.33667180       0.07700156       1.08483884
H       -2.86872815       0.59685775      -0.52892450
H       -3.03079236      -1.09241788      -0.02242289
H        0.02533587       1.16123197      -1.46716767
H        0.81306099       2.28666825       0.59352791
H        0.21603597       0.98914411       1.62074569
H       -0.91510313       2.03140774       0.78326631
