12
Frame=0 idx=006788 GeodesicLength=0.0 rxn_smarts="[O:1]=[C:2]([C@@:3]1([H:9])[C:4]([H:10])([H:11])[N:5]1[C:6](=[O:7])[H:12])[H:8]>>[O:1]=[C:2]([C@@:3]1([H:9])[C:4]([H:10])([H:11])[N:5]=[C:6]([H:12])[O:7]1)[H:8]"
O        2.63965279      -0.40136595      -0.70660319
C        1.47261597      -0.16792690      -0.86285703
C        0.67120993       0.43467977       0.23176370
C       -0.57237125       1.12235027       0.06635242
N       -1.29137873       0.13199643       0.91557552
C       -1.17162804      -1.12583148       0.55972069
O       -0.23767616      -1.67054806      -0.04958260
H        0.96070903      -0.29465825      -1.83053293
H        1.15096056       0.46243671       1.20355523
H       -0.94410864       1.16405123      -0.95891127
H       -0.65268627       2.08845467       0.55689872
H       -2.02529923      -1.74363844       0.87462074
12
Frame=1 idx=006788 GeodesicLength=0.05704869268911067 rxn_smarts="[O:1]=[C:2]([C@@:3]1([H:9])[C:4]([H:10])([H:11])[N:5]1[C:6](=[O:7])[H:12])[H:8]>>[O:1]=[C:2]([C@@:3]1([H:9])[C:4]([H:10])([H:11])[N:5]=[C:6]([H:12])[O:7]1)[H:8]"
O        2.65955623      -0.33482537      -0.71808038
C        1.47898284      -0.16810409      -0.85757823
C        0.66209492       0.40414950       0.24241182
C       -0.56918553       1.11949792       0.05990263
N       -1.29132570       0.13613419       0.90658396
C       -1.19603535      -1.12351993       0.55087121
O       -0.27340544      -1.67044338      -0.07646975
H        0.97012947      -0.30887043      -1.82554607
H        1.14662345       0.43944304       1.21180278
H       -0.92944104       1.16659094      -0.96883184
H       -0.63745263       2.08681443       0.54990953
H       -2.02054123      -1.74686682       0.92502434
12
Frame=2 idx=006788 GeodesicLength=0.1114789340663827 rxn_smarts="[O:1]=[C:2]([C@@:3]1([H:9])[C:4]([H:10])([H:11])[N:5]1[C:6](=[O:7])[H:12])[H:8]>>[O:1]=[C:2]([C@@:3]1([H:9])[C:4]([H:10])([H:11])[N:5]=[C:6]([H:12])[O:7]1)[H:8]"
O        2.67428404      -0.27213291      -0.72704071
C        1.48502441      -0.16728000      -0.85226118
C        0.65262239       0.37426109       0.25220681
C       -0.56598046       1.11673463       0.05357926
N       -1.29095897       0.14004359       0.89755556
C       -1.21989184      -1.12099949       0.54212228
O       -0.30860468      -1.66911101      -0.10339695
H        0.97971951      -0.32319796      -1.82032810
H        1.14200403       0.41728075       1.21907208
H       -0.91500097       1.16922422      -0.97831152
H       -0.62218295       2.08492456       0.54333289
H       -2.01103451      -1.74974747       0.97346958
12
Frame=3 idx=006788 GeodesicLength=0.16422214435199162 rxn_smarts="[O:1]=[C:2]([C@@:3]1([H:9])[C:4]([H:10])([H:11])[N:5]1[C:6](=[O:7])[H:12])[H:8]>>[O:1]=[C:2]([C@@:3]1([H:9])[C:4]([H:10])([H:11])[N:5]=[C:6]([H:12])[O:7]1)[H:8]"
O        2.68502843      -0.21161377      -0.73494774
C        1.49071660      -0.16583799      -0.84701509
C        0.64313333       0.34503615       0.26130202
C       -0.56278041       1.11385858       0.04765787
N       -1.28981365       0.14372437       0.88954524
C       -1.24247522      -1.11845662       0.53505955
O       -0.34259420      -1.66703560      -0.12880437
H        0.98913057      -0.33864203      -1.81474524
H        1.13780346       0.39635503       1.22540371
H       -0.90121216       1.17128629      -0.98709076
H       -0.60699300       2.08281372       0.53709094
H       -1.99994376      -1.75148813       1.01654386
12
Frame=4 idx=006788 GeodesicLength=0.21582583961047758 rxn_smarts="[O:1]=[C:2]([C@@:3]1([H:9])[C:4]([H:10])([H:11])[N:5]1[C:6](=[O:7])[H:12])[H:8]>>[O:1]=[C:2]([C@@:3]1([H:9])[C:4]([H:10])([H:11])[N:5]=[C:6]([H:12])[O:7]1)[H:8]"
O        2.69214438      -0.15356496      -0.74116819
C        1.49602174      -0.16385930      -0.84164849
C        0.63335100       0.31627752       0.26968793
C       -0.55957147       1.11107644       0.04185931
N       -1.28849063       0.14734789       0.88161264
C       -1.26458154      -1.11569167       0.52848771
O       -0.37647393      -1.66390650      -0.15424391
H        0.99886699      -0.35461012      -1.80888035
H        1.13329577       0.37590438       1.23098836
H       -0.88763159       1.17341312      -0.99553668
H       -0.59172625       2.08056407       0.53116715
H       -1.98520447      -1.75295087       1.05767451
12
Frame=5 idx=006788 GeodesicLength=0.26650385983162955 rxn_smarts="[O:1]=[C:2]([C@@:3]1([H:9])[C:4]([H:10])([H:11])[N:5]1[C:6](=[O:7])[H:12])[H:8]>>[O:1]=[C:2]([C@@:3]1([H:9])[C:4]([H:10])([H:11])[N:5]=[C:6]([H:12])[O:7]1)[H:8]"
O        2.69622384      -0.09730916      -0.74658088
C        1.50094382      -0.16135196      -0.83631499
C        0.62360465       0.28818823       0.27743511
C       -0.55635124       1.10826969       0.03637396
N       -1.28653481       0.15081359       0.87449910
C       -1.28560832      -1.11288371       0.52335520
O       -0.40956931      -1.66007039      -0.17852427
H        1.00866352      -0.37157757      -1.80262223
H        1.12910290       0.35644915       1.23576051
H       -0.87458426       1.17514634      -1.00343749
H       -0.57646844       2.07820069       0.52549519
H       -1.96942234      -1.75387488       1.09456077
12
Frame=6 idx=006788 GeodesicLength=0.3164326062007235 rxn_smarts="[O:1]=[C:2]([C@@:3]1([H:9])[C:4]([H:10])([H:11])[N:5]1[C:6](=[O:7])[H:12])[H:8]>>[O:1]=[C:2]([C@@:3]1([H:9])[C:4]([H:10])([H:11])[N:5]=[C:6]([H:12])[O:7]1)[H:8]"
O        2.69753184      -0.04419382      -0.75076541
C        1.50538103      -0.15805711      -0.83104259
C        0.61379146       0.26090215       0.28448806
C       -0.55330221       1.10552199       0.03114447
N       -1.28410076       0.15415526       0.86790220
C       -1.30557239      -1.10988448       0.51922455
O       -0.44192692      -1.65525108      -0.20211593
H        1.01867273      -0.38903233      -1.79597835
H        1.12497494       0.33795484       1.23964952
H       -0.86218942       1.17669714      -1.01078598
H       -0.56153388       2.07569335       0.52008187
H       -1.95172641      -1.75450593       1.12819759
12
Frame=7 idx=006788 GeodesicLength=0.3657817838580804 rxn_smarts="[O:1]=[C:2]([C@@:3]1([H:9])[C:4]([H:10])([H:11])[N:5]1[C:6](=[O:7])[H:12])[H:8]>>[O:1]=[C:2]([C@@:3]1([H:9])[C:4]([H:10])([H:11])[N:5]=[C:6]([H:12])[O:7]1)[H:8]"
O        2.69650750       0.00740743      -0.75456089
C        1.50941765      -0.15426110      -0.82585364
C        0.60415273       0.23436140       0.29097096
C       -0.55025588       1.10277803       0.02622417
N       -1.28097366       0.15733376       0.86213564
C       -1.32439605      -1.10684326       0.51640493
O       -0.47341054      -1.64986899      -0.22439749
H        1.02883250      -0.40743935      -1.78885683
H        1.12125822       0.32041147       1.24278946
H       -0.85035087       1.17788405      -1.01762533
H       -0.54667896       2.07312233       0.51487774
H       -1.93410264      -1.75488576       1.15789129
12
Frame=8 idx=006788 GeodesicLength=0.4147611797586581 rxn_smarts="[O:1]=[C:2]([C@@:3]1([H:9])[C:4]([H:10])([H:11])[N:5]1[C:6](=[O:7])[H:12])[H:8]>>[O:1]=[C:2]([C@@:3]1([H:9])[C:4]([H:10])([H:11])[N:5]=[C:6]([H:12])[O:7]1)[H:8]"
O        2.69337795       0.05727675      -0.75780939
C        1.51304157      -0.15001312      -0.82067930
C        0.59454929       0.20848205       0.29688993
C       -0.54727424       1.10012145       0.02151908
N       -1.27743625       0.16042430       0.85684783
C       -1.34239072      -1.10365374       0.51445263
O       -0.50441172      -1.64374573      -0.24595304
H        1.03937065      -0.42663057      -1.78122235
H        1.11763529       0.30349139       1.24526987
H       -0.83893994       1.17897077      -1.02408085
H       -0.53194980       2.07050237       0.50988970
H       -1.91557210      -1.75522593       1.18487590
12
Frame=9 idx=006788 GeodesicLength=0.4635474324117551 rxn_smarts="[O:1]=[C:2]([C@@:3]1([H:9])[C:4]([H:10])([H:11])[N:5]1[C:6](=[O:7])[H:12])[H:8]>>[O:1]=[C:2]([C@@:3]1([H:9])[C:4]([H:10])([H:11])[N:5]=[C:6]([H:12])[O:7]1)[H:8]"
O        2.68831780       0.10555410      -0.76045518
C        1.51624070      -0.14546552      -0.81544155
C        0.58488452       0.18317580       0.30226815
C       -0.54436950       1.09759573       0.01696005
N       -1.27368438       0.16349379       0.85181300
C       -1.35978244      -1.10027650       0.51314527
O       -0.53531299      -1.63676086      -0.26719701
H        1.05041294      -0.44657301      -1.77302672
H        1.11391091       0.28695736       1.24719088
H       -0.82783466       1.18008437      -1.03026511
H       -0.51729943       2.06785250       0.50511401
H       -1.89548346      -1.75563777       1.20989420
12
Frame=10 idx=006788 GeodesicLength=0.5121834120729365 rxn_smarts="[O:1]=[C:2]([C@@:3]1([H:9])[C:4]([H:10])([H:11])[N:5]1[C:6](=[O:7])[H:12])[H:8]>>[O:1]=[C:2]([C@@:3]1([H:9])[C:4]([H:10])([H:11])[N:5]=[C:6]([H:12])[O:7]1)[H:8]"
O        2.68133168       0.15326175      -0.76335427
C        1.51908557      -0.14065414      -0.81018849
C        0.57541565       0.15847412       0.30718764
C       -0.54143517       1.09510495       0.01267043
N       -1.26934465       0.16643724       0.84739402
C       -1.37627197      -1.09677317       0.51273766
O       -0.56555575      -1.62925965      -0.28730429
H        1.06188859      -0.46767350      -1.76397656
H        1.11049592       0.27094333       1.24849676
H       -0.81703812       1.18100218      -1.03601851
H       -0.50265384       2.06513773       0.50051731
H       -1.87591793      -1.75600083       1.23183830
12
Frame=11 idx=006788 GeodesicLength=0.5606304506961333 rxn_smarts="[O:1]=[C:2]([C@@:3]1([H:9])[C:4]([H:10])([H:11])[N:5]1[C:6](=[O:7])[H:12])[H:8]>>[O:1]=[C:2]([C@@:3]1([H:9])[C:4]([H:10])([H:11])[N:5]=[C:6]([H:12])[O:7]1)[H:8]"
O        2.67287122       0.19850116      -0.76561704
C        1.52139973      -0.13537446      -0.80501016
C        0.56593250       0.13453906       0.31158250
C       -0.53871031       1.09282521       0.00851318
N       -1.26474490       0.16931041       0.84324123
C       -1.39199578      -1.09312205       0.51290500
O       -0.59543374      -1.62089836      -0.30697818
H        1.07382683      -0.48915519      -1.75434320
H        1.10704920       0.25550556       1.24924211
H       -0.80674791       1.18204009      -1.04151601
H       -0.48836288       2.06246276       0.49610035
H       -1.85508396      -1.75663420       1.25188023
12
Frame=12 idx=006788 GeodesicLength=0.6088770288504728 rxn_smarts="[O:1]=[C:2]([C@@:3]1([H:9])[C:4]([H:10])([H:11])[N:5]1[C:6](=[O:7])[H:12])[H:8]>>[O:1]=[C:2]([C@@:3]1([H:9])[C:4]([H:10])([H:11])[N:5]=[C:6]([H:12])[O:7]1)[H:8]"
O        2.66298531       0.24242571      -0.76808751
C        1.52332304      -0.12974707      -0.79995364
C        0.55666814       0.11134777       0.31554913
C       -0.53609018       1.09066137       0.00462204
N       -1.25964048       0.17204708       0.83964212
C       -1.40680740      -1.08937660       0.51378435
O       -0.62454885      -1.61204279      -0.32563277
H        1.08624796      -0.51144234      -1.74390205
H        1.10392738       0.24073708       1.24942310
H       -0.79691317       1.18297594      -1.04661744
H       -0.47433161       2.05981360       0.49191109
H       -1.83482014      -1.75739975       1.26926159
12
Frame=13 idx=006788 GeodesicLength=0.6570305155022754 rxn_smarts="[O:1]=[C:2]([C@@:3]1([H:9])[C:4]([H:10])([H:11])[N:5]1[C:6](=[O:7])[H:12])[H:8]>>[O:1]=[C:2]([C@@:3]1([H:9])[C:4]([H:10])([H:11])[N:5]=[C:6]([H:12])[O:7]1)[H:8]"
O        2.65187288       0.28462030      -0.77045054
C        1.52477698      -0.12380995      -0.79500134
C        0.54746805       0.08886135       0.31906793
C       -0.53365418       1.08870018       0.00090977
N       -1.25426354       0.17471220       0.83634853
C       -1.42089668      -1.08550649       0.51517956
O       -0.65326451      -1.60247766      -0.34374267
H        1.09924915      -0.53436437      -1.73263624
H        1.10088351       0.22646634       1.24908829
H       -0.78750849       1.18401342      -1.05142790
H       -0.46060752       2.05723356       0.48792894
H       -1.81405564      -1.75844888       1.28473569
12
Frame=14 idx=006788 GeodesicLength=0.7051378429094285 rxn_smarts="[O:1]=[C:2]([C@@:3]1([H:9])[C:4]([H:10])([H:11])[N:5]1[C:6](=[O:7])[H:12])[H:8]>>[O:1]=[C:2]([C@@:3]1([H:9])[C:4]([H:10])([H:11])[N:5]=[C:6]([H:12])[O:7]1)[H:8]"
O        2.63951043       0.32564601      -0.77310576
C        1.52580990      -0.11764972      -0.79014236
C        0.53841996       0.06703071       0.32220824
C       -0.53133884       1.08690504      -0.00260063
N       -1.24852473       0.17726131       0.83341488
C       -1.43423812      -1.08154066       0.51707980
O       -0.68146047      -1.59234729      -0.36111196
H        1.11284063      -0.55802650      -1.72038051
H        1.09805612       0.21265048       1.24828414
H       -0.77846038       1.18511511      -1.05594668
H       -0.44711185       2.05469785       0.48414743
H       -1.79350265      -1.75974235       1.29815341
12
Frame=15 idx=006788 GeodesicLength=0.7530673979029312 rxn_smarts="[O:1]=[C:2]([C@@:3]1([H:9])[C:4]([H:10])([H:11])[N:5]1[C:6](=[O:7])[H:12])[H:8]>>[O:1]=[C:2]([C@@:3]1([H:9])[C:4]([H:10])([H:11])[N:5]=[C:6]([H:12])[O:7]1)[H:8]"
O        2.62630973       0.36474653      -0.77578419
C        1.52633925      -0.11115022      -0.78550539
C        0.52950200       0.04597282       0.32497721
C       -0.52923381       1.08532620      -0.00594276
N       -1.24250032       0.17966990       0.83080314
C       -1.44683986      -1.07753586       0.51943118
O       -0.70912911      -1.58162228      -0.37784719
H        1.12694700      -0.58206278      -1.70728104
H        1.09543018       0.19947679       1.24705288
H       -0.76990702       1.18633970      -1.06024454
H       -0.43400285       2.05225996       0.48056904
H       -1.77291520      -1.76142076       1.30977166
12
Frame=16 idx=006788 GeodesicLength=0.801006428537508 rxn_smarts="[O:1]=[C:2]([C@@:3]1([H:9])[C:4]([H:10])([H:11])[N:5]1[C:6](=[O:7])[H:12])[H:8]>>[O:1]=[C:2]([C@@:3]1([H:9])[C:4]([H:10])([H:11])[N:5]=[C:6]([H:12])[O:7]1)[H:8]"
O        2.61209537       0.40222925      -0.77881590
C        1.52635239      -0.10448783      -0.78104832
C        0.52075933       0.02562135       0.32738370
C       -0.52732556       1.08392511      -0.00903485
N       -1.23606964       0.18196830       0.82849008
C       -1.45852499      -1.07341767       0.52214188
O       -0.73594877      -1.57041437      -0.39375732
H        1.14155791      -0.60654256      -1.69306403
H        1.09302359       0.18687846       1.24524750
H       -0.76179432       1.18763156      -1.06410961
H       -0.42135847       2.04988190       0.47722504
H       -1.75276684      -1.76327350       1.31934182
