12
Frame=0 idx=002936 GeodesicLength=0.0 rxn_smarts="[C:1]([c:2]1[c:3]([H:10])[c:4]([H:11])[c:5]([H:12])[o:6]1)([H:7])([H:8])[H:9]>>[C:1]([C@@:3]1([H:10])[C-:2]=[O+:6][C:5]([H:12])=[C:4]1[H:11])([H:7])([H:8])[H:9]"
C       -1.48292503       0.23422536      -0.05131444
C       -0.29550893      -0.46470901       1.17942202
C        0.20543440       0.69400817       0.53862701
C        1.28026033       0.33680849      -0.36630852
C        1.33758635      -0.99971835      -0.28430759
O        0.42067600      -1.50253591       0.56560482
H       -2.24444051       0.65998993       0.58936694
H       -1.75371611      -0.76458499      -0.37610053
H       -1.33343908       0.84898399      -0.94158091
H       -0.00717823       1.69218454       0.89256422
H        1.88987606       0.98240648      -0.97602752
H        1.98337473      -1.71705874      -0.76994549
12
Frame=1 idx=002936 GeodesicLength=0.05085401277057583 rxn_smarts="[C:1]([c:2]1[c:3]([H:10])[c:4]([H:11])[c:5]([H:12])[o:6]1)([H:7])([H:8])[H:9]>>[C:1]([C@@:3]1([H:10])[C-:2]=[O+:6][C:5]([H:12])=[C:4]1[H:11])([H:7])([H:8])[H:9]"
C       -1.49700805       0.23787654      -0.05021212
C       -0.29438588      -0.47211589       1.16202428
C        0.20355273       0.69088391       0.52633803
C        1.28245868       0.33461989      -0.37503750
C        1.35964597      -0.99937995      -0.27646112
O        0.42003729      -1.50614643       0.54978434
H       -2.24358428       0.67590627       0.60031495
H       -1.79150417      -0.75703600      -0.36797202
H       -1.36286003       0.84327662      -0.94931728
H        0.00654262       1.68424504       0.90256888
H        1.90061606       0.98307569      -0.97315890
H        2.01648905      -1.71520570      -0.74887154
12
Frame=2 idx=002936 GeodesicLength=0.0995323335483872 rxn_smarts="[C:1]([c:2]1[c:3]([H:10])[c:4]([H:11])[c:5]([H:12])[o:6]1)([H:7])([H:8])[H:9]>>[C:1]([C@@:3]1([H:10])[C-:2]=[O+:6][C:5]([H:12])=[C:4]1[H:11])([H:7])([H:8])[H:9]"
C       -1.51009019       0.24098660      -0.04975613
C       -0.29339773      -0.47906582       1.14513719
C        0.20182095       0.68823090       0.51481528
C        1.28613658       0.33285106      -0.38143421
C        1.37948477      -0.99869928      -0.26967637
O        0.42067145      -1.50921348       0.53589939
H       -2.24215338       0.69138354       0.60937549
H       -1.82779639      -0.74990562      -0.35939308
H       -1.39123942       0.83651575      -0.95759481
H        0.02007293       1.67609492       0.91304306
H        1.91036889       0.98392260      -0.97050497
H        2.04612154      -1.71310116      -0.72991084
12
Frame=3 idx=002936 GeodesicLength=0.14659916437493448 rxn_smarts="[C:1]([c:2]1[c:3]([H:10])[c:4]([H:11])[c:5]([H:12])[o:6]1)([H:7])([H:8])[H:9]>>[C:1]([C@@:3]1([H:10])[C-:2]=[O+:6][C:5]([H:12])=[C:4]1[H:11])([H:7])([H:8])[H:9]"
C       -1.52229007       0.24356791      -0.04993840
C       -0.29253078      -0.48549622       1.12877847
C        0.20020183       0.68606913       0.50399395
C        1.29115067       0.33155854      -0.38561734
C        1.39784089      -0.99770271      -0.26334122
O        0.42247868      -1.51175134       0.52403288
H       -2.24027865       0.70644012       0.61660657
H       -1.86268684      -0.74318530      -0.35039536
H       -1.41874952       0.82870255      -0.96640640
H        0.03332351       1.66778830       0.92388448
H        1.91944774       0.98496347      -0.96791339
H        2.07209254      -1.71095445      -0.71368424
12
Frame=4 idx=002936 GeodesicLength=0.1926304808594313 rxn_smarts="[C:1]([c:2]1[c:3]([H:10])[c:4]([H:11])[c:5]([H:12])[o:6]1)([H:7])([H:8])[H:9]>>[C:1]([C@@:3]1([H:10])[C-:2]=[O+:6][C:5]([H:12])=[C:4]1[H:11])([H:7])([H:8])[H:9]"
C       -1.53397246       0.24585007      -0.05057445
C       -0.29178996      -0.49165835       1.11255019
C        0.19866274       0.68420173       0.49355015
C        1.29703839       0.33057732      -0.38840000
C        1.41520678      -0.99650364      -0.25736422
O        0.42503405      -1.51400005       0.51330230
H       -2.23802306       0.72130434       0.62257301
H       -1.89682729      -0.73650682      -0.34092302
H       -1.44598232       0.82024331      -0.97546610
H        0.04651502       1.65907451       0.93504733
H        1.92803220       0.98612582      -0.96549518
H        2.09610591      -1.70870824      -0.69880000
12
Frame=5 idx=002936 GeodesicLength=0.2379223799183232 rxn_smarts="[C:1]([c:2]1[c:3]([H:10])[c:4]([H:11])[c:5]([H:12])[o:6]1)([H:7])([H:8])[H:9]>>[C:1]([C@@:3]1([H:10])[C-:2]=[O+:6][C:5]([H:12])=[C:4]1[H:11])([H:7])([H:8])[H:9]"
C       -1.54532803       0.24793311      -0.05157014
C       -0.29116585      -0.49765733       1.09624945
C        0.19718187       0.68254219       0.48330061
C        1.30354014       0.32982675      -0.39022182
C        1.43188487      -0.99515047      -0.25164862
O        0.42813811      -1.51606518       0.50329113
H       -2.23542268       0.73607156       0.62755567
H       -1.93052461      -0.72969711      -0.33092153
H       -1.47327088       0.81132231      -0.98462131
H        0.05972740       1.64983638       0.94643636
H        1.93633125       0.98738067      -0.96318440
H        2.11890842      -1.70634288      -0.68466540
12
Frame=6 idx=002936 GeodesicLength=0.28263568237458536 rxn_smarts="[C:1]([c:2]1[c:3]([H:10])[c:4]([H:11])[c:5]([H:12])[o:6]1)([H:7])([H:8])[H:9]>>[C:1]([C@@:3]1([H:10])[C-:2]=[O+:6][C:5]([H:12])=[C:4]1[H:11])([H:7])([H:8])[H:9]"
C       -1.55645219       0.24987875      -0.05288126
C       -0.29065949      -0.50356563       1.07975645
C        0.19575487       0.68103731       0.47316845
C        1.31051597       0.32926200      -0.39130261
C        1.44806850      -0.99366690      -0.24610341
O        0.43167860      -1.51801228       0.49376681
H       -2.23249303       0.75078708       0.63169870
H       -1.96392223      -0.72263761      -0.32038343
H       -1.50078580       0.80207203      -0.99376929
H        0.07299032       1.63999320       0.95800328
H        1.94438735       0.98870046      -0.96101455
H        2.14091711      -1.70384841      -0.67093915
12
Frame=7 idx=002936 GeodesicLength=0.3268882121379863 rxn_smarts="[C:1]([c:2]1[c:3]([H:10])[c:4]([H:11])[c:5]([H:12])[o:6]1)([H:7])([H:8])[H:9]>>[C:1]([C@@:3]1([H:10])[C-:2]=[O+:6][C:5]([H:12])=[C:4]1[H:11])([H:7])([H:8])[H:9]"
C       -1.56740275       0.25170710      -0.05448750
C       -0.29026527      -0.50940454       1.06300891
C        0.19438044       0.67967035       0.46310603
C        1.31787564       0.32886811      -0.39177769
C        1.46394911      -0.99206128      -0.24057079
O        0.43560304      -1.51986208       0.48463412
H       -2.22925418       0.76545556       0.63507282
H       -1.99707931      -0.71527215      -0.30929900
H       -1.52864016       0.79255496      -1.00284581
H        0.08628398       1.62951861       0.96966752
H        1.95229746       0.99007377      -0.95892823
H        2.16225202      -1.70124841      -0.65758038
12
Frame=8 idx=002936 GeodesicLength=0.37073447564051787 rxn_smarts="[C:1]([c:2]1[c:3]([H:10])[c:4]([H:11])[c:5]([H:12])[o:6]1)([H:7])([H:8])[H:9]>>[C:1]([C@@:3]1([H:10])[C-:2]=[O+:6][C:5]([H:12])=[C:4]1[H:11])([H:7])([H:8])[H:9]"
C       -1.57820581       0.25343629      -0.05637932
C       -0.28997730      -0.51520074       1.04596675
C        0.19306786       0.67842074       0.45310448
C        1.32556972       0.32862326      -0.39170953
C        1.47957484      -0.99034098      -0.23503577
O        0.43988044      -1.52164369       0.47583753
H       -2.22571005       0.78009046       0.63771216
H       -2.03001500      -0.70755083      -0.29766127
H       -1.55688919       0.78281893      -1.01180212
H        0.09958391       1.61839107       0.98138353
H        1.96007882       0.99149032      -0.95692206
H        2.18304177      -1.69853484      -0.64449438
12
Frame=9 idx=002936 GeodesicLength=0.4142207676608181 rxn_smarts="[C:1]([c:2]1[c:3]([H:10])[c:4]([H:11])[c:5]([H:12])[o:6]1)([H:7])([H:8])[H:9]>>[C:1]([C@@:3]1([H:10])[C-:2]=[O+:6][C:5]([H:12])=[C:4]1[H:11])([H:7])([H:8])[H:9]"
C       -1.58887813       0.25507402      -0.05855350
C       -0.28978981      -0.52096964       1.02859967
C        0.19182630       0.67727743       0.44316339
C        1.33355897       0.32851814      -0.39114096
C        1.49501327      -0.98850973      -0.22944133
O        0.44449202      -1.52337081       0.46735086
H       -2.22186534       0.79469015       0.63963402
H       -2.06272688      -0.69943661      -0.28546799
H       -1.58557321       0.77290005      -1.02059497
H        0.11284998       1.60660460       0.99310038
H        1.96775472       0.99294013      -0.95498005
H        2.20333810      -1.69571770      -0.63166952
12
Frame=10 idx=002936 GeodesicLength=0.4573765066611698 rxn_smarts="[C:1]([c:2]1[c:3]([H:10])[c:4]([H:11])[c:5]([H:12])[o:6]1)([H:7])([H:8])[H:9]>>[C:1]([C@@:3]1([H:10])[C-:2]=[O+:6][C:5]([H:12])=[C:4]1[H:11])([H:7])([H:8])[H:9]"
C       -1.59942668       0.25662830      -0.06101048
C       -0.28969845      -0.52672924       1.01088078
C        0.19066735       0.67622995       0.43329648
C        1.34181414       0.32854689      -0.39009391
C        1.51030492      -0.98657553      -0.22375374
O        0.44942362      -1.52505540       0.45915784
H       -2.21772139       0.80924527       0.64085007
H       -2.09519503      -0.69089184      -0.27273172
H       -1.61471570       0.76284428      -1.02917979
H        0.12603868       1.59415500       1.00478269
H        1.97531255       0.99440761      -0.95312184
H        2.22319600      -1.69280529      -0.61907638
12
Frame=11 idx=002936 GeodesicLength=0.5002215150805965 rxn_smarts="[C:1]([c:2]1[c:3]([H:10])[c:4]([H:11])[c:5]([H:12])[o:6]1)([H:7])([H:8])[H:9]>>[C:1]([C@@:3]1([H:10])[C-:2]=[O+:6][C:5]([H:12])=[C:4]1[H:11])([H:7])([H:8])[H:9]"
C       -1.60984569       0.25809087      -0.06376128
C       -0.28969265      -0.53247380       0.99281372
C        0.18960535       0.67528010       0.42352858
C        1.35032689       0.32871046      -0.38855351
C        1.52548057      -0.98453906      -0.21792462
O        0.45468472      -1.52669573       0.45131124
H       -2.21328664       0.82373959       0.64133944
H       -2.12736807      -0.68190789      -0.25946438
H       -1.64431365       0.75265900      -1.03753396
H        0.13908718       1.58107109       1.01639064
H        1.98276690       0.99588502      -0.95132191
H        2.24255511      -1.68981967      -0.60682398
12
Frame=12 idx=002936 GeodesicLength=0.5427698716339799 rxn_smarts="[C:1]([c:2]1[c:3]([H:10])[c:4]([H:11])[c:5]([H:12])[o:6]1)([H:7])([H:8])[H:9]>>[C:1]([C@@:3]1([H:10])[C-:2]=[O+:6][C:5]([H:12])=[C:4]1[H:11])([H:7])([H:8])[H:9]"
C       -1.62012598       0.25945871      -0.06681730
C       -0.28976402      -0.53820550       0.97439717
C        0.18865462       0.67442703       0.41389285
C        1.35909022       0.32901076      -0.38649698
C        1.54055491      -0.98240777      -0.21193061
O        0.46027983      -1.52829123       0.44385744
H       -2.20856641       0.83815187       0.64108825
H       -2.15919141      -0.67246843      -0.24569553
H       -1.67435835       0.74237247      -1.04562835
H        0.15193768       1.56737614       1.02790303
H        1.99009287       0.99735550      -0.94959971
H        2.26139606      -1.68677954      -0.59497026
12
Frame=13 idx=002936 GeodesicLength=0.585023832889011 rxn_smarts="[C:1]([c:2]1[c:3]([H:10])[c:4]([H:11])[c:5]([H:12])[o:6]1)([H:7])([H:8])[H:9]>>[C:1]([C@@:3]1([H:10])[C-:2]=[O+:6][C:5]([H:12])=[C:4]1[H:11])([H:7])([H:8])[H:9]"
C       -1.63024179       0.26071221      -0.07020435
C       -0.28989931      -0.54390190       0.95566740
C        0.18783431       0.67368351       0.40444115
C        1.36812410       0.32946128      -0.38384724
C        1.55553996      -0.98017744      -0.20571483
O        0.46623696      -1.52982604       0.43692385
H       -2.20357379       0.85245777       0.64004164
H       -2.19057572      -0.66258966      -0.23146072
H       -1.70479816       0.73196695      -1.05346407
H        0.16451336       1.55312825       1.03930986
H        1.99727377       0.99880548      -0.94794856
H        2.27956631      -1.68372041      -0.58374413
12
Frame=14 idx=002936 GeodesicLength=0.627038072870773 rxn_smarts="[C:1]([c:2]1[c:3]([H:10])[c:4]([H:11])[c:5]([H:12])[o:6]1)([H:7])([H:8])[H:9]>>[C:1]([C@@:3]1([H:10])[C-:2]=[O+:6][C:5]([H:12])=[C:4]1[H:11])([H:7])([H:8])[H:9]"
C       -1.64019405       0.26186005      -0.07393767
C       -0.29010460      -0.54958070       0.93661718
C        0.18716541       0.67304814       0.39523546
C        1.37745194       0.33006719      -0.38055277
C        1.57046037      -0.97786650      -0.19926319
O        0.47254841      -1.53131394       0.43053998
H       -2.19833711       0.86664149       0.63820680
H       -2.22149086      -0.65224904      -0.21683989
H       -1.73561256       0.72150717      -1.06101069
H        0.17677467       1.53835144       1.05066218
H        2.00420154       1.00019253      -0.94652654
H        2.29713684      -1.68065783      -0.57313084
12
Frame=15 idx=002936 GeodesicLength=0.6686252806554872 rxn_smarts="[C:1]([c:2]1[c:3]([H:10])[c:4]([H:11])[c:5]([H:12])[o:6]1)([H:7])([H:8])[H:9]>>[C:1]([C@@:3]1([H:10])[C-:2]=[O+:6][C:5]([H:12])=[C:4]1[H:11])([H:7])([H:8])[H:9]"
C       -1.64986701       0.26288636      -0.07806401
C       -0.29033008      -0.55523245       0.91729595
C        0.18666374       0.67250778       0.38636365
C        1.38707001       0.33085398      -0.37641590
C        1.58528958      -0.97544542      -0.19244363
O        0.47929140      -1.53270233       0.42490558
H       -2.19278601       0.88064131       0.63544992
H       -2.25168970      -0.64142528      -0.20192238
H       -1.76663996       0.71101304      -1.06825889
H        0.18858161       1.52305167       1.06197660
H        2.01062515       1.00145006      -0.94544699
H        2.31379127      -1.67759872      -0.56343989
12
Frame=16 idx=002936 GeodesicLength=0.7100569650559058 rxn_smarts="[C:1]([c:2]1[c:3]([H:10])[c:4]([H:11])[c:5]([H:12])[o:6]1)([H:7])([H:8])[H:9]>>[C:1]([C@@:3]1([H:10])[C-:2]=[O+:6][C:5]([H:12])=[C:4]1[H:11])([H:7])([H:8])[H:9]"
C       -1.65946739       0.26382715      -0.08249894
C       -0.29059547      -0.56090772       0.89750469
C        0.18631014       0.67203271       0.37763707
C        1.39685038       0.33174679      -0.37189311
C        1.60001737      -0.97298014      -0.18557535
O        0.48631506      -1.53408166       0.41967541
H       -2.18698449       0.89454770       0.63201493
H       -2.28149276      -0.63007290      -0.18652228
H       -1.79822747       0.70051753      -1.07510914
H        0.20005504       1.50721255       1.07312628
H        2.01701339       1.00265393      -0.94437377
H        2.33020620      -1.67449593      -0.55398580
