14
Frame=0 idx=009535 GeodesicLength=0.0 rxn_smarts="[C:1]([C@@:2]1([H:11])[O:3][C:4]([H:12])([H:13])/[C:5](=[N:6]/[H:14])[O:7]1)([H:8])([H:9])[H:10]>>[C:1]([C@@:2]1([H:11])[O:3][C@:5]2([C:4]([H:12])([H:13])[N:6]2[H:14])[O:7]1)([H:8])([H:9])[H:10]"
C       -1.92780429       0.91980706       0.04198486
C       -0.91323714      -0.16256168       0.30613573
O       -0.35477377      -0.70899164      -0.83461319
C        1.66404570      -1.38901927      -0.04020397
C        1.11361883      -0.08974118      -0.13412524
N        2.06999757       0.59124163      -0.71299960
O        0.30045174       0.39866367       0.86614919
H       -2.22399276       1.40212254       0.97523461
H       -2.81071802       0.48032748      -0.42439430
H       -1.50322160       1.66214219      -0.63428097
H       -1.31359383      -0.92000295       0.99415455
H        2.06863766      -1.82379090      -0.94258564
H        1.73847251      -1.91124399       0.90952008
H        2.09211746       1.55104700      -0.36997607
14
Frame=1 idx=009535 GeodesicLength=0.05715304274171671 rxn_smarts="[C:1]([C@@:2]1([H:11])[O:3][C:4]([H:12])([H:13])/[C:5](=[N:6]/[H:14])[O:7]1)([H:8])([H:9])[H:10]>>[C:1]([C@@:2]1([H:11])[O:3][C@:5]2([C:4]([H:12])([H:13])[N:6]2[H:14])[O:7]1)([H:8])([H:9])[H:10]"
C       -1.93794083       0.91160837       0.03669128
C       -0.91415123      -0.15774370       0.31517541
O       -0.35495069      -0.71943295      -0.82012480
C        1.64651056      -1.38026701      -0.05935328
C        1.10800952      -0.07220859      -0.13836298
N        2.09041560       0.58343315      -0.70216146
O        0.29769480       0.41739193       0.86236554
H       -2.23618311       1.40466916       0.96355935
H       -2.81755829       0.45804148      -0.42224704
H       -1.51997277       1.64778206      -0.65031637
H       -1.30593230      -0.90839566       1.01538835
H        2.04012954      -1.82238357      -0.96323562
H        1.75108985      -1.89284409       0.89294445
H        2.15283934       1.53034941      -0.33032283
14
Frame=2 idx=009535 GeodesicLength=0.11401003041480341 rxn_smarts="[C:1]([C@@:2]1([H:11])[O:3][C:4]([H:12])([H:13])/[C:5](=[N:6]/[H:14])[O:7]1)([H:8])([H:9])[H:10]>>[C:1]([C@@:2]1([H:11])[O:3][C@:5]2([C:4]([H:12])([H:13])[N:6]2[H:14])[O:7]1)([H:8])([H:9])[H:10]"
C       -1.94808374       0.90324715       0.03166445
C       -0.91471409      -0.15248032       0.32385715
O       -0.35488741      -0.72914298      -0.80596019
C        1.62946476      -1.37067374      -0.07790011
C        1.10258717      -0.05422391      -0.14365467
N        2.11077291       0.57538871      -0.69108042
O        0.29515772       0.43677924       0.85757440
H       -2.24832194       1.40681494       0.95212880
H       -2.82429777       0.43546684      -0.41932752
H       -1.53720954       1.63323525      -0.66611241
H       -1.29744268      -0.89622266       1.03626961
H        2.01268499      -1.82025220      -0.98280658
H        1.76193264      -1.87463672       0.87570057
H        2.21235698       1.50670040      -0.29035308
14
Frame=3 idx=009535 GeodesicLength=0.17051204384753368 rxn_smarts="[C:1]([C@@:2]1([H:11])[O:3][C:4]([H:12])([H:13])/[C:5](=[N:6]/[H:14])[O:7]1)([H:8])([H:9])[H:10]>>[C:1]([C@@:2]1([H:11])[O:3][C@:5]2([C:4]([H:12])([H:13])[N:6]2[H:14])[O:7]1)([H:8])([H:9])[H:10]"
C       -1.95809685       0.89477617       0.02691311
C       -0.91488441      -0.14680714       0.33216429
O       -0.35448645      -0.73809707      -0.79214190
C        1.61294715      -1.36035498      -0.09585121
C        1.09740841      -0.03584339      -0.14986953
N        2.13098292       0.56708649      -0.67966801
O        0.29284994       0.45666715       0.85190124
H       -2.26033169       1.40852006       0.94098744
H       -2.83076851       0.41277233      -0.41576937
H       -1.55469099       1.61860233      -0.68153112
H       -1.28817623      -0.88355461       1.05667205
H        1.98635106      -1.81746563      -1.00133591
H        1.77100626      -1.85672515       0.85802380
H        2.26988940       1.48042344      -0.25049486
14
Frame=4 idx=009535 GeodesicLength=0.2265973113572238 rxn_smarts="[C:1]([C@@:2]1([H:11])[O:3][C:4]([H:12])([H:13])/[C:5](=[N:6]/[H:14])[O:7]1)([H:8])([H:9])[H:10]>>[C:1]([C@@:2]1([H:11])[O:3][C@:5]2([C:4]([H:12])([H:13])[N:6]2[H:14])[O:7]1)([H:8])([H:9])[H:10]"
C       -1.96786043       0.88626835       0.02243950
C       -0.91467666      -0.14079423       0.34011226
O       -0.35367199      -0.74637170      -0.77868654
C        1.59700789      -1.34947221      -0.11323143
C        1.09252877      -0.01714596      -0.15687449
N        2.15097296       0.55854225      -0.66789960
O        0.29075353       0.47688617       0.84553145
H       -2.27215956       1.40983598       0.93019151
H       -2.83684417       0.39012109      -0.41172265
H       -1.57212709       1.60400016      -0.69648830
H       -1.27830716      -0.87050014       1.07654206
H        1.96118606      -1.81416750      -1.01892286
H        1.77841978      -1.83923185       0.84013079
H        2.32477806       1.45202958      -0.21112170
14
Frame=5 idx=009535 GeodesicLength=0.28234144224774144 rxn_smarts="[C:1]([C@@:2]1([H:11])[O:3][C:4]([H:12])([H:13])/[C:5](=[N:6]/[H:14])[O:7]1)([H:8])([H:9])[H:10]>>[C:1]([C@@:2]1([H:11])[O:3][C@:5]2([C:4]([H:12])([H:13])[N:6]2[H:14])[O:7]1)([H:8])([H:9])[H:10]"
C       -1.97727815       0.87775023       0.01820639
C       -0.91406532      -0.13446434       0.34767901
O       -0.35245680      -0.75396934      -0.76549546
C        1.58167084      -1.33803747      -0.13010393
C        1.08789067       0.00178236      -0.16461195
N        2.17044312       0.54971078      -0.65574336
O        0.28887843       0.49722229       0.83847235
H       -2.28358604       1.41085829       0.91959079
H       -2.84246399       0.36766449      -0.40714005
H       -1.58945582       1.58929849      -0.71104513
H       -1.26779617      -0.85698596       1.09580562
H        1.93708743      -1.81029510      -1.03560546
H        1.78451244      -1.82206570       0.82205610
H        2.37661934       1.42153099      -0.17206492
14
Frame=6 idx=009535 GeodesicLength=0.3376583543830327 rxn_smarts="[C:1]([C@@:2]1([H:11])[O:3][C:4]([H:12])([H:13])/[C:5](=[N:6]/[H:14])[O:7]1)([H:8])([H:9])[H:10]>>[C:1]([C@@:2]1([H:11])[O:3][C@:5]2([C:4]([H:12])([H:13])[N:6]2[H:14])[O:7]1)([H:8])([H:9])[H:10]"
C       -1.98623671       0.86930073       0.01425221
C       -0.91302978      -0.12787995       0.35487481
O       -0.35068415      -0.76082777      -0.75267991
C        1.56693533      -1.32630691      -0.14636150
C        1.08363442       0.02082463      -0.17278427
N        2.18944820       0.54048126      -0.64320017
O        0.28721478       0.51755419       0.83099883
H       -2.29477483       1.41135996       0.90940505
H       -2.84740544       0.34558208      -0.40241254
H       -1.60632090       1.57489455      -0.72482593
H       -1.25681559      -0.84327302       1.11429006
H        1.91410111      -1.80612351      -1.05134720
H        1.78913442      -1.80550658       0.80411540
H        2.42479914       1.38992033      -0.13432484
14
Frame=7 idx=009535 GeodesicLength=0.39258976594555006 rxn_smarts="[C:1]([C@@:2]1([H:11])[O:3][C:4]([H:12])([H:13])/[C:5](=[N:6]/[H:14])[O:7]1)([H:8])([H:9])[H:10]>>[C:1]([C@@:2]1([H:11])[O:3][C@:5]2([C:4]([H:12])([H:13])[N:6]2[H:14])[O:7]1)([H:8])([H:9])[H:10]"
C       -1.99470399       0.86093636       0.01054838
C       -0.91162513      -0.12110336       0.36172007
O       -0.34840409      -0.76706299      -0.74022897
C        1.55279847      -1.31433978      -0.16208113
C        1.07973676       0.03992956      -0.18136419
N        2.20784011       0.53093020      -0.63036895
O        0.28574866       0.53778411       0.82318948
H       -2.30558964       1.41150609       0.89959096
H       -2.85171744       0.32389593      -0.39750211
H       -1.62265633       1.56069932      -0.73799681
H       -1.24548535      -0.82938873       1.13206657
H        1.89212733      -1.80171114      -1.06629090
H        1.79255149      -1.78950189       0.78637428
H        2.46937913       1.35742632      -0.09765669
14
Frame=8 idx=009535 GeodesicLength=0.44722070864572544 rxn_smarts="[C:1]([C@@:2]1([H:11])[O:3][C:4]([H:12])([H:13])/[C:5](=[N:6]/[H:14])[O:7]1)([H:8])([H:9])[H:10]>>[C:1]([C@@:2]1([H:11])[O:3][C@:5]2([C:4]([H:12])([H:13])[N:6]2[H:14])[O:7]1)([H:8])([H:9])[H:10]"
C       -2.00272387       0.85264568       0.00708943
C       -0.90984033      -0.11411250       0.36820281
O       -0.34560687      -0.77260663      -0.72816722
C        1.53923588      -1.30218028      -0.17727925
C        1.07621119       0.05907418      -0.19028103
N        2.22551775       0.52105192      -0.61738116
O        0.28446708       0.55795252       0.81502518
H       -2.31609290       1.41125413       0.89014510
H       -2.85541999       0.30256399      -0.39241149
H       -1.63856248       1.54673077      -0.75054588
H       -1.23375326      -0.81533748       1.14909893
H        1.87109329      -1.79711615      -1.08045079
H        1.79484189      -1.77402127       0.76891400
H        2.51063263       1.32410112      -0.06195863
14
Frame=9 idx=009535 GeodesicLength=0.5016464648575975 rxn_smarts="[C:1]([C@@:2]1([H:11])[O:3][C:4]([H:12])([H:13])/[C:5](=[N:6]/[H:14])[O:7]1)([H:8])([H:9])[H:10]>>[C:1]([C@@:2]1([H:11])[O:3][C@:5]2([C:4]([H:12])([H:13])[N:6]2[H:14])[O:7]1)([H:8])([H:9])[H:10]"
C       -2.01032740       0.84440746       0.00386491
C       -0.90767397      -0.10689847       0.37430909
O       -0.34230735      -0.77744329      -0.71654215
C        1.52621289      -1.28986269      -0.19201636
C        1.07307383       0.07825174      -0.19953505
N        2.24246951       0.51087918      -0.60424627
O        0.28336905       0.57811718       0.80645830
H       -2.32624575       1.41067350       0.88104097
H       -2.85857172       0.28150002      -0.38703512
H       -1.65415744       1.53290401      -0.76260261
H       -1.22156154      -0.80109239       1.16543382
H        1.85088793      -1.79238254      -1.09391518
H        1.79607622      -1.75903969       0.75176850
H        2.54875575       1.28998599      -0.02698284
14
Frame=10 idx=009535 GeodesicLength=0.5559323110718364 rxn_smarts="[C:1]([C@@:2]1([H:11])[O:3][C:4]([H:12])([H:13])/[C:5](=[N:6]/[H:14])[O:7]1)([H:8])([H:9])[H:10]>>[C:1]([C@@:2]1([H:11])[O:3][C@:5]2([C:4]([H:12])([H:13])[N:6]2[H:14])[O:7]1)([H:8])([H:9])[H:10]"
C       -2.01749526       0.83622656       0.00086196
C       -0.90511178      -0.09946123       0.38004216
O       -0.33849109      -0.78150560      -0.70535297
C        1.51368807      -1.27743268      -0.20626075
C        1.07031477       0.09741378      -0.20897849
N        2.25855354       0.50040867      -0.59108124
O        0.28242548       0.59823598       0.79754817
H       -2.33609799       1.40966032       0.87228049
H       -2.86109305       0.26073790      -0.38148192
H       -1.66941347       1.51930559      -0.77407884
H       -1.20890562      -0.78670952       1.18100197
H        1.83143734      -1.78752669      -1.10664900
H        1.79635205      -1.74455198       0.73501775
H        2.58383700       1.25519893       0.00713071
14
Frame=11 idx=009535 GeodesicLength=0.610088232209976 rxn_smarts="[C:1]([C@@:2]1([H:11])[O:3][C:4]([H:12])([H:13])/[C:5](=[N:6]/[H:14])[O:7]1)([H:8])([H:9])[H:10]>>[C:1]([C@@:2]1([H:11])[O:3][C@:5]2([C:4]([H:12])([H:13])[N:6]2[H:14])[O:7]1)([H:8])([H:9])[H:10]"
C       -2.02429223       0.82809592      -0.00191715
C       -0.90219668      -0.09179837       0.38540786
O       -0.33418746      -0.78483839      -0.69466491
C        1.50165739      -1.26495569      -0.22007998
C        1.06799349       0.11655098      -0.21860883
N        2.27389190       0.48968838      -0.57787574
O        0.28163435       0.61839134       0.78828946
H       -2.34568091       1.40831602       0.86388677
H       -2.86309618       0.24018853      -0.37567721
H       -1.68441319       1.50587674      -0.78508899
H       -1.19583716      -0.77217202       1.19588222
H        1.81270190      -1.78264658      -1.11877906
H        1.79571869      -1.73057550       0.71868078
H        2.61610610       1.21987865       0.04054477
14
Frame=12 idx=009535 GeodesicLength=0.6642144661796775 rxn_smarts="[C:1]([C@@:2]1([H:11])[O:3][C:4]([H:12])([H:13])/[C:5](=[N:6]/[H:14])[O:7]1)([H:8])([H:9])[H:10]>>[C:1]([C@@:2]1([H:11])[O:3][C@:5]2([C:4]([H:12])([H:13])[N:6]2[H:14])[O:7]1)([H:8])([H:9])[H:10]"
C       -2.03073950       0.81999100      -0.00448201
C       -0.89890472      -0.08388163       0.39038770
O       -0.32941235      -0.78738491      -0.68449627
C        1.49008272      -1.25242793      -0.23349767
C        1.06610404       0.13565506      -0.22840061
N        2.28844422       0.47872858      -0.56463675
O        0.28098634       0.63862796       0.77861331
H       -2.35498706       1.40662423       0.85582170
H       -2.86458202       0.21979908      -0.36955674
H       -1.69927437       1.49256317      -0.79567525
H       -1.18225386      -0.75743986       1.21006728
H        1.79459706      -1.77771822      -1.13031770
H        1.79422281      -1.71707017       0.70276382
H        2.64571669       1.18393363       0.07340920
14
Frame=13 idx=009535 GeodesicLength=0.718249081722949 rxn_smarts="[C:1]([C@@:2]1([H:11])[O:3][C:4]([H:12])([H:13])/[C:5](=[N:6]/[H:14])[O:7]1)([H:8])([H:9])[H:10]>>[C:1]([C@@:2]1([H:11])[O:3][C@:5]2([C:4]([H:12])([H:13])[N:6]2[H:14])[O:7]1)([H:8])([H:9])[H:10]"
C       -2.03677923       0.81196562      -0.00685056
C       -0.89530572      -0.07579906       0.39503111
O       -0.32419820      -0.78927503      -0.67479666
C        1.47897434      -1.23993681      -0.24650117
C        1.06462027       0.15463512      -0.23821267
N        2.30212892       0.46757801      -0.55144004
O        0.28044770       0.65876857       0.76871923
H       -2.36399140       1.40462480       0.84809734
H       -2.86551595       0.19971774      -0.36328723
H       -1.71376936       1.47945290      -0.80578075
H       -1.16837579      -0.74262530       1.22356268
H        1.77713104      -1.77280338      -1.14129289
H        1.79206052      -1.70407064       0.68729563
H        2.67257286       1.14776745       0.10545599
14
Frame=14 idx=009535 GeodesicLength=0.7722643447528967 rxn_smarts="[C:1]([C@@:2]1([H:11])[O:3][C:4]([H:12])([H:13])/[C:5](=[N:6]/[H:14])[O:7]1)([H:8])([H:9])[H:10]>>[C:1]([C@@:2]1([H:11])[O:3][C@:5]2([C:4]([H:12])([H:13])[N:6]2[H:14])[O:7]1)([H:8])([H:9])[H:10]"
C       -2.04244077       0.80399614      -0.00902851
C       -0.89139264      -0.06753116       0.39932964
O       -0.31856626      -0.79048162      -0.66559513
C        1.46829440      -1.22748589      -0.25911768
C        1.06354628       0.17349573      -0.24803352
N        2.31496831       0.45625950      -0.53828179
O        0.28000734       0.67887366       0.75855468
H       -2.37269948       1.40232149       0.84069522
H       -2.86591874       0.17987759      -0.35680781
H       -1.72800004       1.46649756      -0.81546301
H       -1.15413849      -0.72770559       1.23639002
H        1.76023440      -1.76789774      -1.15173831
H        1.78924437      -1.69155427       0.67227684
H        2.69686133       1.11133460       0.13681935
14
Frame=15 idx=009535 GeodesicLength=0.8262108356691418 rxn_smarts="[C:1]([C@@:2]1([H:11])[O:3][C:4]([H:12])([H:13])/[C:5](=[N:6]/[H:14])[O:7]1)([H:8])([H:9])[H:10]>>[C:1]([C@@:2]1([H:11])[O:3][C@:5]2([C:4]([H:12])([H:13])[N:6]2[H:14])[O:7]1)([H:8])([H:9])[H:10]"
C       -2.04768255       0.79613044      -0.01103196
C       -0.88722792      -0.05915923       0.40332472
O       -0.31255849      -0.79113329      -0.65683039
C        1.45805214      -1.21514030      -0.27134129
C        1.06284430       0.19215682      -0.25776595
N        2.32691153       0.44480631      -0.52520894
O        0.27964494       0.69877780       0.74827787
H       -2.38108194       1.39975392       0.83361567
H       -2.86577659       0.16041255      -0.35025887
H       -1.74178818       1.45376616      -0.82467543
H       -1.13972295      -0.71276854       1.24856008
H        1.74390107      -1.76305516      -1.16166768
H        1.78595582      -1.67953454       0.65770583
H        2.71852881       1.07498705       0.16729633
14
Frame=16 idx=009535 GeodesicLength=0.8800700437325923 rxn_smarts="[C:1]([C@@:2]1([H:11])[O:3][C:4]([H:12])([H:13])/[C:5](=[N:6]/[H:14])[O:7]1)([H:8])([H:9])[H:10]>>[C:1]([C@@:2]1([H:11])[O:3][C@:5]2([C:4]([H:12])([H:13])[N:6]2[H:14])[O:7]1)([H:8])([H:9])[H:10]"
C       -2.05245921       0.78840466      -0.01288235
C       -0.88286507      -0.05076254       0.40706269
O       -0.30621515      -0.79134299      -0.64843247
C        1.44823900      -1.20294241      -0.28315809
C        1.06245556       0.21055433      -0.26731816
N        2.33788750       0.43326091      -0.51229498
O        0.27933788       0.71832187       0.73804558
H       -2.38910791       1.39693989       0.82684893
H       -2.86506053       0.14143933      -0.34379055
H       -1.75496495       1.44132955      -0.83337638
H       -1.12528496      -0.69791013       1.26009064
H        1.72809586      -1.75830775      -1.17108090
H        1.78235726      -1.66800111       0.64358269
H        2.73758472       1.03901638       0.19670337
