14
Frame=0 idx=011765 GeodesicLength=0.0 rxn_smarts="[C:1]1([H:8])([H:9])[C@:2]2([H:10])[O:3][C@:4]3([H:11])[C:5]([H:12])([H:13])[N:6]1[C@:7]23[H:14]>>[C:1]1([H:8])([H:9])[C:5]([H:12])([H:13])[C@:4]2([H:11])[O:3][C@:2]3([H:10])[N:6]1[C@@:7]32[H:14]"
C       -0.58090859      -1.20969708       0.33776228
C       -1.05160589       0.63340985      -0.50322846
O       -0.46197503       1.75104685       0.02294197
C        0.77438476       1.03815150      -0.10870493
C        0.77866379      -0.05349699       0.93355670
N        0.45968451      -1.21193783      -0.64838640
C        0.18199989       0.09241561      -1.18882568
H       -0.38257173      -1.83303741       1.22387605
H       -1.61763185      -1.45415082       0.04774287
H       -2.12051539       0.62643894      -0.66823007
H        1.65212854       1.67933546      -0.17550908
H        1.72648943      -0.55583733       1.10293336
H        0.30456555       0.23549688       1.87685940
H        0.33729200       0.26186243      -2.25278796
14
Frame=1 idx=011765 GeodesicLength=0.0796637817615264 rxn_smarts="[C:1]1([H:8])([H:9])[C@:2]2([H:10])[O:3][C@:4]3([H:11])[C:5]([H:12])([H:13])[N:6]1[C@:7]23[H:14]>>[C:1]1([H:8])([H:9])[C:5]([H:12])([H:13])[C@:4]2([H:11])[O:3][C@:2]3([H:10])[N:6]1[C@@:7]32[H:14]"
C       -0.59643762      -1.19552778       0.35577207
C       -1.05447296       0.61577735      -0.51763651
O       -0.47963505       1.73083145       0.03857347
C        0.76926725       1.03967558      -0.09993871
C        0.79299116      -0.06349651       0.92957034
N        0.42721464      -1.20333737      -0.64687145
C        0.19311924       0.10485310      -1.19486179
H       -0.39374219      -1.82949744       1.23265117
H       -1.63343037      -1.45095751       0.07939191
H       -2.11689098       0.62201462      -0.72225861
H        1.63497367       1.69730277      -0.16355809
H        1.74722003      -0.56063190       1.07955546
H        0.34530397       0.22327454       1.88624444
H        0.36451922       0.26971909      -2.25663370
14
Frame=2 idx=011765 GeodesicLength=0.15917773818049896 rxn_smarts="[C:1]1([H:8])([H:9])[C@:2]2([H:10])[O:3][C@:4]3([H:11])[C:5]([H:12])([H:13])[N:6]1[C@:7]23[H:14]>>[C:1]1([H:8])([H:9])[C:5]([H:12])([H:13])[C@:4]2([H:11])[O:3][C@:2]3([H:10])[N:6]1[C@@:7]32[H:14]"
C       -0.61167329      -1.18109685       0.37367641
C       -1.05715841       0.59819595      -0.53284113
O       -0.49752129       1.71004848       0.05324837
C        0.76375299       1.04106449      -0.09108044
C        0.80689331      -0.07359266       0.92518337
N        0.39487443      -1.19392044      -0.64528576
C        0.20425796       0.11709849      -1.20060596
H       -0.40481285      -1.82574327       1.24108557
H       -1.64903663      -1.44650669       0.11140854
H       -2.11206303       0.61726726      -0.77415422
H        1.61703189       1.71504371      -0.15080388
H        1.76727724      -0.56522143       1.05552058
H        0.38577482       0.21050450       1.89452232
H        0.39240285       0.27685845      -2.25987377
14
Frame=3 idx=011765 GeodesicLength=0.23859687692803055 rxn_smarts="[C:1]1([H:8])([H:9])[C@:2]2([H:10])[O:3][C@:4]3([H:11])[C:5]([H:12])([H:13])[N:6]1[C@:7]23[H:14]>>[C:1]1([H:8])([H:9])[C:5]([H:12])([H:13])[C@:4]2([H:11])[O:3][C@:2]3([H:10])[N:6]1[C@@:7]32[H:14]"
C       -0.62654602      -1.16645855       0.39140569
C       -1.05963315       0.58071728      -0.54861508
O       -0.51546502       1.68884651       0.06687575
C        0.75791286       1.04230640      -0.08216292
C        0.82033268      -0.08374586       0.92043547
N        0.36286457      -1.18367199      -0.64357980
C        0.21532066       0.12912959      -1.20602766
H       -0.41582647      -1.82181891       1.24914209
H       -1.66429117      -1.44094349       0.14350213
H       -2.10626973       0.61225435      -0.82379454
H        1.59846944       1.73242429      -0.13738985
H        1.78659001      -0.56947672       1.03101277
H        0.42582605       0.19720701       1.90168266
H        0.42071529       0.28323009      -2.26248671
14
Frame=4 idx=011765 GeodesicLength=0.3179210633900297 rxn_smarts="[C:1]1([H:8])([H:9])[C@:2]2([H:10])[O:3][C@:4]3([H:11])[C:5]([H:12])([H:13])[N:6]1[C@:7]23[H:14]>>[C:1]1([H:8])([H:9])[C:5]([H:12])([H:13])[C@:4]2([H:11])[O:3][C@:2]3([H:10])[N:6]1[C@@:7]32[H:14]"
C       -0.64100918      -1.15166515       0.40886951
C       -1.06192014       0.56338081      -0.56473813
O       -0.53338275       1.66736952       0.07943504
C        0.75178517       1.04337018      -0.07319623
C        0.83334915      -0.09392358       0.91538328
N        0.33139607      -1.17268804      -0.64175048
C        0.22618129       0.14091548      -1.21108194
H       -0.42679039      -1.81772694       1.25678481
H       -1.67914570      -1.43437145       0.17542670
H       -2.09972585       0.60709404      -0.87127722
H        1.57937067       1.74931994      -0.12341216
H        1.80524732      -0.57331452       1.00619340
H        0.46539906       0.18345554       1.90777641
H        0.44924526       0.28878417      -2.26441299
14
Frame=5 idx=011765 GeodesicLength=0.3972798498408735 rxn_smarts="[C:1]1([H:8])([H:9])[C@:2]2([H:10])[O:3][C@:4]3([H:11])[C:5]([H:12])([H:13])[N:6]1[C@:7]23[H:14]>>[C:1]1([H:8])([H:9])[C:5]([H:12])([H:13])[C@:4]2([H:11])[O:3][C@:2]3([H:10])[N:6]1[C@@:7]32[H:14]"
C       -0.65501054      -1.13672446       0.42598893
C       -1.06403224       0.54613723      -0.58098235
O       -0.55116293       1.64570394       0.09094968
C        0.74540024       1.04422425      -0.06422154
C        0.84592696      -0.10410560       0.91005223
N        0.30065287      -1.16103690      -0.63976641
C        0.23673983       0.15244257      -1.21574220
H       -0.43773381      -1.81341409       1.26400308
H       -1.69350614      -1.42684381       0.20695824
H       -2.09254949       0.60184309      -0.91661684
H        1.55980906       1.76564114      -0.10901386
H        1.82323422      -0.57666953       0.98117801
H        0.50439275       0.16927759       1.91281311
H        0.47783921       0.29352460      -2.26560009
14
Frame=6 idx=011765 GeodesicLength=0.4766582205366796 rxn_smarts="[C:1]1([H:8])([H:9])[C@:2]2([H:10])[O:3][C@:4]3([H:11])[C:5]([H:12])([H:13])[N:6]1[C@:7]23[H:14]>>[C:1]1([H:8])([H:9])[C:5]([H:12])([H:13])[C@:4]2([H:11])[O:3][C@:2]3([H:10])[N:6]1[C@@:7]32[H:14]"
C       -0.66852585      -1.12172150       0.44272129
C       -1.06601410       0.52906693      -0.59712630
O       -0.56870441       1.62404071       0.10145421
C        0.73880279       1.04485540      -0.05523974
C        0.85809462      -0.11428045       0.90448192
N        0.27077411      -1.14881042      -0.63761941
C        0.24685634       0.16370823      -1.21998699
H       -0.44867917      -1.80891465       1.27081368
H       -1.70729177      -1.41855699       0.23795041
H       -2.08483161       0.59660384      -0.96008471
H        1.53990075       1.78128247      -0.09430872
H        1.84061259      -0.57944513       0.95610108
H        0.54275977       0.15471343       1.91685371
H        0.50624595       0.29745813      -2.26601044
14
Frame=7 idx=011765 GeodesicLength=0.5560676367984232 rxn_smarts="[C:1]1([H:8])([H:9])[C@:2]2([H:10])[O:3][C@:4]3([H:11])[C:5]([H:12])([H:13])[N:6]1[C@:7]23[H:14]>>[C:1]1([H:8])([H:9])[C:5]([H:12])([H:13])[C@:4]2([H:11])[O:3][C@:2]3([H:10])[N:6]1[C@@:7]32[H:14]"
C       -0.68152298      -1.10669154       0.45899297
C       -1.06788077       0.51216897      -0.61304445
O       -0.58591334       1.60250534       0.11093283
C        0.73206078       1.04525228      -0.04629564
C        0.86981992      -0.12440573       0.89871016
N        0.24192384      -1.13608820      -0.63529038
C        0.25647697       0.17470517      -1.22383364
H       -0.45964100      -1.80421539       1.27720724
H       -1.72044021      -1.40966577       0.26816177
H       -2.07672575       0.59144242      -1.00149723
H        1.51980352       1.79616907      -0.07940632
H        1.85736204      -0.58156786       0.93113306
H        0.58035050       0.13982411       1.91990463
H        0.53432648       0.30056712      -2.26567499
14
Frame=8 idx=011765 GeodesicLength=0.6354963275396279 rxn_smarts="[C:1]1([H:8])([H:9])[C@:2]2([H:10])[O:3][C@:4]3([H:11])[C:5]([H:12])([H:13])[N:6]1[C@:7]23[H:14]>>[C:1]1([H:8])([H:9])[C:5]([H:12])([H:13])[C@:4]2([H:11])[O:3][C@:2]3([H:10])[N:6]1[C@@:7]32[H:14]"
C       -0.69398922      -1.09167773       0.47474994
C       -1.06965051       0.49544917      -0.62859671
O       -0.60268623       1.58122528       0.11942537
C        0.72523300       1.04540431      -0.03741996
C        0.88109544      -0.13445379       0.89277531
N        0.21421548      -1.12297449      -0.63277482
C        0.26553728       0.18544714      -1.22730114
H       -0.47062380      -1.79931155       1.28318690
H       -1.73290054      -1.40033517       0.29741625
H       -2.06832699       0.58640401      -1.04085018
H        1.49965185       1.81022158      -0.06443330
H        1.87348870      -0.58298857       0.90643699
H        0.61704675       0.12469613       1.92200319
H        0.56190880       0.30289368      -2.26461781
14
Frame=9 idx=011765 GeodesicLength=0.7149104254953951 rxn_smarts="[C:1]1([H:8])([H:9])[C@:2]2([H:10])[O:3][C@:4]3([H:11])[C:5]([H:12])([H:13])[N:6]1[C@:7]23[H:14]>>[C:1]1([H:8])([H:9])[C:5]([H:12])([H:13])[C@:4]2([H:11])[O:3][C@:2]3([H:10])[N:6]1[C@@:7]32[H:14]"
C       -0.70593286      -1.07673220       0.48997296
C       -1.07134177       0.47893994      -0.64368739
O       -0.61896419       1.56031721       0.12696895
C        0.71837398       1.04531185      -0.02863596
C        0.89192600      -0.14440562       0.88670905
N        0.18771545      -1.10954718      -0.63008447
C        0.27399276       0.19594765      -1.23040752
H       -0.48163174      -1.79422055       1.28877721
H       -1.74465422      -1.39075482       0.32560956
H       -2.05970888       0.58155273      -1.07821127
H        1.47957536       1.82339664      -0.04949146
H        1.88902372      -0.58365489       0.88213521
H        0.65277459       0.10938012       1.92320557
H        0.58885179       0.30446913      -2.26286043
14
Frame=10 idx=011765 GeodesicLength=0.7942951113823303 rxn_smarts="[C:1]1([H:8])([H:9])[C@:2]2([H:10])[O:3][C@:4]3([H:11])[C:5]([H:12])([H:13])[N:6]1[C@:7]23[H:14]>>[C:1]1([H:8])([H:9])[C:5]([H:12])([H:13])[C@:4]2([H:11])[O:3][C@:2]3([H:10])[N:6]1[C@@:7]32[H:14]"
C       -0.71736849      -1.06188315       0.50464272
C       -1.07297385       0.46263464      -0.65825200
O       -0.63469166       1.53986389       0.13363718
C        0.71153194       1.04497900      -0.01996402
C        0.90231750      -0.15424797       0.88053932
N        0.16245880      -1.09590902      -0.62722338
C        0.28181996       0.20623290      -1.23319103
H       -0.49266315      -1.78893664       1.29400602
H       -1.75569582      -1.38105669       0.35265570
H       -2.05093472       0.57690459      -1.11363208
H        1.45968200       1.83567729      -0.03466370
H        1.90398775      -0.58355835       0.85833470
H        0.68747633       0.09394452       1.92356401
H        0.61505340       0.30535498      -2.26045343
14
Frame=11 idx=011765 GeodesicLength=0.8736450803596016 rxn_smarts="[C:1]1([H:8])([H:9])[C@:2]2([H:10])[O:3][C@:4]3([H:11])[C:5]([H:12])([H:13])[N:6]1[C@:7]23[H:14]>>[C:1]1([H:8])([H:9])[C:5]([H:12])([H:13])[C@:4]2([H:11])[O:3][C@:2]3([H:10])[N:6]1[C@@:7]32[H:14]"
C       -0.72832226      -1.04714622       0.51876071
C       -1.07455852       0.44652454      -0.67225817
O       -0.64984655       1.51991832       0.13951338
C        0.70474299       1.04441045      -0.01141760
C        0.91228121      -0.16397660       0.87428240
N        0.13844431      -1.08214769      -0.62420778
C        0.28901691       0.21632678      -1.23568728
H       -0.50371237      -1.78344144       1.29891527
H       -1.76604162      -1.37135798       0.37851850
H       -2.04203758       0.57246798      -1.14719527
H        1.44005162       1.84706853      -0.02001178
H        1.91840461      -0.58270583       0.83509380
H        0.72112446       0.07843991       1.92313271
H        0.64045278       0.30561925      -2.25743889
14
Frame=12 idx=011765 GeodesicLength=0.9529630391405062 rxn_smarts="[C:1]1([H:8])([H:9])[C@:2]2([H:10])[O:3][C@:4]3([H:11])[C:5]([H:12])([H:13])[N:6]1[C@:7]23[H:14]>>[C:1]1([H:8])([H:9])[C:5]([H:12])([H:13])[C@:4]2([H:11])[O:3][C@:2]3([H:10])[N:6]1[C@@:7]32[H:14]"
C       -0.73882606      -1.03253889       0.53233914
C       -1.07610797       0.43060768      -0.68570741
O       -0.66443907       1.50050566       0.14465755
C        0.69802197       1.04361798      -0.00299881
C        0.92185203      -0.17360222       0.86794055
N        0.11563725      -1.06833221      -0.62105795
C        0.29558930       0.22625207      -1.23792199
H       -0.51478267      -1.77773416       1.30355113
H       -1.77574447      -1.36170453       0.40324260
H       -2.03304718       0.56823503      -1.17904877
H        1.42071017       1.85761037      -0.00554313
H        1.93232914      -0.58110387       0.81242001
H        0.75375992       0.06287213       1.92196227
H        0.66504765       0.30531495      -2.25383519
14
Frame=13 idx=011765 GeodesicLength=1.0322854723473662 rxn_smarts="[C:1]1([H:8])([H:9])[C@:2]2([H:10])[O:3][C@:4]3([H:11])[C:5]([H:12])([H:13])[N:6]1[C@:7]23[H:14]>>[C:1]1([H:8])([H:9])[C:5]([H:12])([H:13])[C@:4]2([H:11])[O:3][C@:2]3([H:10])[N:6]1[C@@:7]32[H:14]"
C       -0.74891231      -1.01805968       0.54540561
C       -1.07763369       0.41487132      -0.69861691
O       -0.67850306       1.48162811       0.14914888
C        0.69137167       1.04260926       0.00530058
C        0.93105638      -0.18314375       0.86149756
N        0.09398002      -1.05451614      -0.61779373
C        0.30155936       0.23602739      -1.23992210
H       -0.52587336      -1.77179196       1.30796620
H       -1.78484984      -1.35211190       0.42691501
H       -2.02396070       0.56417972      -1.20936060
H        1.40165887       1.86735110       0.00876037
H        1.94579452      -0.57876817       0.79026913
H        0.78543720       0.04722755       1.92008487
H        0.68887493       0.30449714      -2.24965487
14
Frame=14 idx=011765 GeodesicLength=1.1115703819115756 rxn_smarts="[C:1]1([H:8])([H:9])[C@:2]2([H:10])[O:3][C@:4]3([H:11])[C:5]([H:12])([H:13])[N:6]1[C@:7]23[H:14]>>[C:1]1([H:8])([H:9])[C:5]([H:12])([H:13])[C@:4]2([H:11])[O:3][C@:2]3([H:10])[N:6]1[C@@:7]32[H:14]"
C       -0.75860433      -1.00371629       0.55796714
C       -1.07913574       0.39930484      -0.71100455
O       -0.69203158       1.46331157       0.15304477
C        0.68481891       1.04139801       0.01347381
C        0.93991009      -0.19260438       0.85497170
N        0.07343890      -1.04076913      -0.61443040
C        0.30694997       0.24567640      -1.24172817
H       -0.53696399      -1.76561478       1.31219518
H       -1.79338360      -1.34263389       0.44953007
H       -2.01481512       0.56028020      -1.23818265
H        1.38295422       1.87631573       0.02286946
H        1.95881728      -0.57574004       0.76869785
H        0.81614878       0.03155263       1.91755284
H        0.71189622       0.30323912      -2.24495705
14
Frame=15 idx=011765 GeodesicLength=1.1908926090797634 rxn_smarts="[C:1]1([H:8])([H:9])[C@:2]2([H:10])[O:3][C@:4]3([H:11])[C:5]([H:12])([H:13])[N:6]1[C@:7]23[H:14]>>[C:1]1([H:8])([H:9])[C:5]([H:12])([H:13])[C@:4]2([H:11])[O:3][C@:2]3([H:10])[N:6]1[C@@:7]32[H:14]"
C       -0.76793993      -0.98949393       0.57003957
C       -1.08060751       0.38387571      -0.72288790
O       -0.70505616       1.44551039       0.15640182
C        0.67836415       1.03998024       0.02152366
C        0.94844038      -0.20199287       0.84833615
N        0.05395232      -1.02711616      -0.61098465
C        0.31179633       0.25521811      -1.24334342
H       -0.54806083      -1.75916014       1.31626748
H       -1.80140993      -1.33325096       0.47116669
H       -2.00559820       0.55648283      -1.26562339
H        1.36458163       1.88453651       0.03680111
H        1.97142883      -0.57202752       0.74765037
H        0.84594527       0.01583393       1.91437199
H        0.73416366       0.30160386      -2.23971947
14
Frame=16 idx=011765 GeodesicLength=1.2701963173780637 rxn_smarts="[C:1]1([H:8])([H:9])[C@:2]2([H:10])[O:3][C@:4]3([H:11])[C:5]([H:12])([H:13])[N:6]1[C@:7]23[H:14]>>[C:1]1([H:8])([H:9])[C:5]([H:12])([H:13])[C@:4]2([H:11])[O:3][C@:2]3([H:10])[N:6]1[C@@:7]32[H:14]"
C       -0.77694134      -0.97540706       0.58165283
C       -1.08204969       0.36859152      -0.73430874
O       -0.71759350       1.42825117       0.15926706
C        0.67201983       1.03837750       0.02945658
C        0.95666985      -0.21132490       0.84160422
N        0.03546355      -1.01361034      -0.60748047
C        0.31612391       0.26467051      -1.24481167
H       -0.55914476      -1.75245426       1.32023474
H       -1.80896021      -1.32399535       0.49188425
H       -1.99632588       0.55277803      -1.29180169
H        1.34656147       1.89206827       0.05056349
H        1.98364809      -0.56767559       0.72714318
H        0.87486158       0.00008365       1.91060603
H        0.75566711       0.29964685      -2.23400980
