16
Frame=0 idx=010039 GeodesicLength=0.0 rxn_smarts="[C:1]([C:2]([N:3]([C:4](=[O:5])[O:6][C:7]([H:14])([H:15])[H:16])[H:13])([H:11])[H:12])([H:8])([H:9])[H:10]>>[C:1]([C:2]([O:6][C:7]([H:14])([H:15])[H:16])([H:11])[H:12])([H:8])([H:9])[H:10].[N:3](=[C:4]=[O:5])[H:13]"
C       -1.39757135       1.25551077       0.28134757
C       -1.10524174      -0.08617388       0.82418967
N       -0.85484699      -1.05568654      -1.17859979
C        0.44238517      -1.06324548      -1.15059139
O        1.35960666      -1.28731776      -1.91080787
O        0.75404049      -0.67736666       0.21305089
C        1.98227786      -0.01623907       0.43747792
H       -2.07102133       1.21914069      -0.56814656
H       -1.84468148       1.83466876       1.10013068
H       -0.48444748       1.77654878      -0.00779449
H       -0.53849973      -0.10296254       1.74587919
H       -1.87199610      -0.83994256       0.78505167
H       -1.26110648      -1.38964020      -2.04091413
H        1.87629854       1.06547355       0.30124325
H        2.30977050      -0.23458017       1.45339413
H        2.70503350      -0.39818770      -0.28491072
16
Frame=1 idx=010039 GeodesicLength=0.12599559673695537 rxn_smarts="[C:1]([C:2]([N:3]([C:4](=[O:5])[O:6][C:7]([H:14])([H:15])[H:16])[H:13])([H:11])[H:12])([H:8])([H:9])[H:10]>>[C:1]([C:2]([O:6][C:7]([H:14])([H:15])[H:16])([H:11])[H:12])([H:8])([H:9])[H:10].[N:3](=[C:4]=[O:5])[H:13]"
C       -1.41676826       1.25261528       0.28460345
C       -1.10889526      -0.09217791       0.81776242
N       -0.84405215      -1.10576395      -1.15158925
C        0.45259727      -1.10207224      -1.16154497
O        1.36330757      -1.37512272      -1.91096283
O        0.76806371      -0.64655972       0.20704234
C        2.00654554      -0.00697268       0.43045102
H       -2.07525462       1.21321489      -0.57702174
H       -1.89205685       1.81658204       1.09777384
H       -0.50866589       1.79425172       0.01828154
H       -0.55689980      -0.10212929       1.74971651
H       -1.88772198      -0.83592119       0.79884041
H       -1.26729628      -1.25857193      -2.05536510
H        1.91225282       1.07480317       0.28767536
H        2.32674237      -0.22289342       1.44960955
H        2.72810183      -0.40328204      -0.28527253
16
Frame=2 idx=010039 GeodesicLength=0.25665493387346405 rxn_smarts="[C:1]([C:2]([N:3]([C:4](=[O:5])[O:6][C:7]([H:14])([H:15])[H:16])[H:13])([H:11])[H:12])([H:8])([H:9])[H:10]>>[C:1]([C:2]([O:6][C:7]([H:14])([H:15])[H:16])([H:11])[H:12])([H:8])([H:9])[H:10].[N:3](=[C:4]=[O:5])[H:13]"
C       -1.43779529       1.25320774       0.29782245
C       -1.11513788      -0.10052940       0.80603255
N       -0.83093517      -1.13506959      -1.14145126
C        0.46451187      -1.16244827      -1.16581748
O        1.36965143      -1.49579517      -1.89430009
O        0.77977653      -0.61035840       0.19517700
C        2.02832988       0.00790342       0.41482822
H       -2.07866785       1.22114759      -0.57764268
H       -1.94280470       1.79178652       1.10970385
H       -0.53517998       1.81801803       0.06314792
H       -0.58043831      -0.11398389       1.74912646
H       -1.90501686      -0.83439947       0.79690679
H       -1.25245192      -1.12095783      -2.05859206
H        1.94943171       1.08720190       0.24781570
H        2.33605939      -0.19060642       1.44153122
H        2.75066716      -0.41511676      -0.28428860
16
Frame=3 idx=010039 GeodesicLength=0.3869615559046222 rxn_smarts="[C:1]([C:2]([N:3]([C:4](=[O:5])[O:6][C:7]([H:14])([H:15])[H:16])[H:13])([H:11])[H:12])([H:8])([H:9])[H:10]>>[C:1]([C:2]([O:6][C:7]([H:14])([H:15])[H:16])([H:11])[H:12])([H:8])([H:9])[H:10].[N:3](=[C:4]=[O:5])[H:13]"
C       -1.45865829       1.25548335       0.31287942
C       -1.12166385      -0.10826983       0.79178303
N       -0.81854900      -1.15852891      -1.13757525
C        0.47457752      -1.22385284      -1.16926341
O        1.37261681      -1.61474857      -1.87462701
O        0.79008963      -0.57173447       0.17705000
C        2.04876504       0.02283691       0.39716989
H       -2.08064613       1.23462289      -0.57693288
H       -1.99364553       1.76570585       1.12340613
H       -0.56204967       1.84278104       0.11315000
H       -0.60395165      -0.12942796       1.74531794
H       -1.92225840      -0.83223401       0.78963698
H       -1.22575569      -0.99552902      -2.04668483
H        1.98753023       1.09904724       0.20588582
H        2.34143813      -0.15814986       1.43173511
H        2.77216084      -0.42800182      -0.28293095
16
Frame=4 idx=010039 GeodesicLength=0.5175426046784679 rxn_smarts="[C:1]([C:2]([N:3]([C:4](=[O:5])[O:6][C:7]([H:14])([H:15])[H:16])[H:13])([H:11])[H:12])([H:8])([H:9])[H:10]>>[C:1]([C:2]([O:6][C:7]([H:14])([H:15])[H:16])([H:11])[H:12])([H:8])([H:9])[H:10].[N:3](=[C:4]=[O:5])[H:13]"
C       -1.47991879       1.25913486       0.33350807
C       -1.12936033      -0.11654980       0.77539298
N       -0.80682529      -1.17066402      -1.14320417
C        0.48175599      -1.29435892      -1.16585570
O        1.37153537      -1.74875654      -1.83987704
O        0.79846578      -0.53069510       0.15332438
C        2.06661339       0.04073179       0.37387929
H       -2.08231034       1.25562445      -0.57038910
H       -2.04397488       1.73655940       1.14379525
H       -0.58979230       1.86781597       0.17279619
H       -0.62826382      -0.15202513       1.73851941
H       -1.94010265      -0.83100570       0.77478938
H       -1.17617751      -0.86945426      -2.03317398
H        2.02428101       1.11178664       0.15212830
H        2.34279139      -0.11658023       1.41706518
H        2.79128299      -0.44156342      -0.28269845
16
Frame=5 idx=010039 GeodesicLength=0.6448294093163196 rxn_smarts="[C:1]([C:2]([N:3]([C:4](=[O:5])[O:6][C:7]([H:14])([H:15])[H:16])[H:13])([H:11])[H:12])([H:8])([H:9])[H:10]>>[C:1]([C:2]([O:6][C:7]([H:14])([H:15])[H:16])([H:11])[H:12])([H:8])([H:9])[H:10].[N:3](=[C:4]=[O:5])[H:13]"
C       -1.49964841       1.26275718       0.35162178
C       -1.13540821      -0.12321009       0.75810054
N       -0.79656649      -1.18415810      -1.14961136
C        0.48596870      -1.35489238      -1.16548171
O        1.36502845      -1.86734429      -1.80790088
O        0.80635888      -0.48965496       0.12452522
C        2.08326118       0.05667664       0.35245046
H       -2.08335209       1.27632445      -0.56484939
H       -2.09075897       1.70896449       1.15988544
H       -0.61671623       1.89022538       0.22803950
H       -0.64972491      -0.17282767       1.72954503
H       -1.95588159      -0.82839880       0.76049754
H       -1.12448744      -0.76156068      -2.00586154
H        2.06108653       1.12325600       0.10835838
H        2.34181923      -0.08385210       1.40274399
H        2.80902138      -0.45230505      -0.28206300
16
Frame=6 idx=010039 GeodesicLength=0.7705018452095755 rxn_smarts="[C:1]([C:2]([N:3]([C:4](=[O:5])[O:6][C:7]([H:14])([H:15])[H:16])[H:13])([H:11])[H:12])([H:8])([H:9])[H:10]>>[C:1]([C:2]([O:6][C:7]([H:14])([H:15])[H:16])([H:11])[H:12])([H:8])([H:9])[H:10].[N:3](=[C:4]=[O:5])[H:13]"
C       -1.51789467       1.26647668       0.36974480
C       -1.14042507      -0.12903905       0.74006799
N       -0.78749694      -1.19474667      -1.15922209
C        0.48766672      -1.41094343      -1.16584466
O        1.35382753      -1.98131089      -1.77255218
O        0.81373023      -0.44879324       0.09181693
C        2.09814742       0.07266597       0.33093717
H       -2.08269646       1.29868743      -0.55854359
H       -2.13511200       1.68137885       1.17463119
H       -0.64254879       1.91059510       0.28396166
H       -0.66953723      -0.19429075       1.71893484
H       -1.97030380      -0.82516642       0.74495081
H       -1.06763442      -0.66622061      -1.97277233
H        2.09646941       1.13485345       0.06835014
H        2.33862021      -0.05404816       1.38750720
H        2.82518785      -0.46009828      -0.28196786
16
Frame=7 idx=010039 GeodesicLength=0.894663524293502 rxn_smarts="[C:1]([C:2]([N:3]([C:4](=[O:5])[O:6][C:7]([H:14])([H:15])[H:16])[H:13])([H:11])[H:12])([H:8])([H:9])[H:10]>>[C:1]([C:2]([O:6][C:7]([H:14])([H:15])[H:16])([H:11])[H:12])([H:8])([H:9])[H:10].[N:3](=[C:4]=[O:5])[H:13]"
C       -1.53406987       1.26996178       0.38722270
C       -1.14397280      -0.13415757       0.72163934
N       -0.77940181      -1.20350302      -1.17102733
C        0.48749257      -1.46092823      -1.16883915
O        1.33816970      -2.08914514      -1.73529840
O        0.82100568      -0.40896076       0.05635483
C        2.11136927       0.08865401       0.31020661
H       -2.07954037       1.32188370      -0.55218794
H       -2.17673966       1.65409174       1.18691052
H       -0.66662611       1.92847913       0.33974630
H       -0.68766651      -0.21570936       1.70724431
H       -1.98303542      -0.82129507       0.72903363
H       -1.01051199      -0.58410060      -1.93467121
H        2.13010566       1.14673550       0.03304486
H        2.33327978      -0.02718180       1.37230887
H        2.84014190      -0.46482430      -0.28168791
16
Frame=8 idx=010039 GeodesicLength=1.0175136359243457 rxn_smarts="[C:1]([C:2]([N:3]([C:4](=[O:5])[O:6][C:7]([H:14])([H:15])[H:16])[H:13])([H:11])[H:12])([H:8])([H:9])[H:10]>>[C:1]([C:2]([O:6][C:7]([H:14])([H:15])[H:16])([H:11])[H:12])([H:8])([H:9])[H:10].[N:3](=[C:4]=[O:5])[H:13]"
C       -1.54783644       1.27300894       0.40365318
C       -1.14588659      -0.13871525       0.70319275
N       -0.77204568      -1.21114246      -1.18417380
C        0.48634537      -1.50456671      -1.17598423
O        1.31864306      -2.19001021      -1.69771110
O        0.82852205      -0.37086966       0.01938604
C        2.12306058       0.10464091       0.29099525
H       -2.07397353       1.34519598      -0.54592499
H       -2.21490923       1.62771255       1.19639019
H       -0.68843799       1.94349729       0.39402681
H       -0.70441221      -0.23658607       1.69513006
H       -1.99406444      -0.81675930       0.71343738
H       -0.95692489      -0.51498973      -1.89275860
H        2.16167282       1.15898338       0.00275721
H        2.32592052      -0.00284749       1.35801735
H        2.85432659      -0.46655216      -0.28043350
16
Frame=9 idx=010039 GeodesicLength=1.1390799953479562 rxn_smarts="[C:1]([C:2]([N:3]([C:4](=[O:5])[O:6][C:7]([H:14])([H:15])[H:16])[H:13])([H:11])[H:12])([H:8])([H:9])[H:10]>>[C:1]([C:2]([O:6][C:7]([H:14])([H:15])[H:16])([H:11])[H:12])([H:8])([H:9])[H:10].[N:3](=[C:4]=[O:5])[H:13]"
C       -1.55924240       1.27553771       0.41851116
C       -1.14590785      -0.14266376       0.68513370
N       -0.76518504      -1.21862931      -1.19745372
C        0.48511597      -1.54194301      -1.18862782
O        1.29597569      -2.28246789      -1.66246047
O        0.83658475      -0.33444385      -0.01845821
C        2.13350286       0.12038015       0.27421636
H       -2.06729959       1.36748864      -0.53969571
H       -2.24869917       1.60310997       1.20319463
H       -0.70795859       1.95575579       0.44431011
H       -0.71970430      -0.25596442       1.68316880
H       -2.00311011      -0.81153519       0.69918467
H       -0.91030204      -0.45887712      -1.84805368
H        2.19172541       1.17143533      -0.02168318
H        2.31631419       0.01869584       1.34565240
H        2.86819022      -0.46587886      -0.27693903
16
Frame=10 idx=010039 GeodesicLength=1.2598522367945075 rxn_smarts="[C:1]([C:2]([N:3]([C:4](=[O:5])[O:6][C:7]([H:14])([H:15])[H:16])[H:13])([H:11])[H:12])([H:8])([H:9])[H:10]>>[C:1]([C:2]([O:6][C:7]([H:14])([H:15])[H:16])([H:11])[H:12])([H:8])([H:9])[H:10].[N:3](=[C:4]=[O:5])[H:13]"
C       -1.56821778       1.27738963       0.43304343
C       -1.14460812      -0.14672208       0.66736705
N       -0.75850313      -1.22454634      -1.21193825
C        0.48372956      -1.57508566      -1.20603464
O        1.26909499      -2.37126633      -1.62494385
O        0.84505915      -0.29973853      -0.05638510
C        2.14264587       0.13685832       0.25850243
H       -2.05752798       1.39003001      -0.53321103
H       -2.27965353       1.57896045       1.20792739
H       -0.72502535       1.96520125       0.49469592
H       -0.73454252      -0.27575029       1.67133521
H       -2.01093319      -0.80610127       0.68484503
H       -0.86761198      -0.41165486      -1.80320528
H        2.21960488       1.18451303      -0.04415266
H        2.30494388       0.04084985       1.33398980
H        2.88154523      -0.46293718      -0.27183545
16
Frame=11 idx=010039 GeodesicLength=1.3800429467269404 rxn_smarts="[C:1]([C:2]([N:3]([C:4](=[O:5])[O:6][C:7]([H:14])([H:15])[H:16])[H:13])([H:11])[H:12])([H:8])([H:9])[H:10]>>[C:1]([C:2]([O:6][C:7]([H:14])([H:15])[H:16])([H:11])[H:12])([H:8])([H:9])[H:10].[N:3](=[C:4]=[O:5])[H:13]"
C       -1.57491014       1.27839112       0.44739046
C       -1.14207502      -0.15114478       0.64991134
N       -0.75173345      -1.22885145      -1.22760585
C        0.48238763      -1.60472282      -1.22846295
O        1.23711022      -2.45698812      -1.58384292
O        0.85401673      -0.26649262      -0.09411103
C        2.15072721       0.15426496       0.24365920
H       -2.04466192       1.41271213      -0.52630059
H       -2.30802520       1.55507364       1.21072130
H       -0.73984050       1.97171495       0.54544070
H       -0.74913281      -0.29624831       1.65963391
H       -2.01762519      -0.80069665       0.67022733
H       -0.82837006      -0.37166218      -1.75901153
H        2.24555715       1.19832089      -0.06533594
H        2.29211243       0.06420341       1.32283488
H        2.89446293      -0.45787417      -0.26514830
16
Frame=12 idx=010039 GeodesicLength=1.499844119860264 rxn_smarts="[C:1]([C:2]([N:3]([C:4](=[O:5])[O:6][C:7]([H:14])([H:15])[H:16])[H:13])([H:11])[H:12])([H:8])([H:9])[H:10]>>[C:1]([C:2]([O:6][C:7]([H:14])([H:15])[H:16])([H:11])[H:12])([H:8])([H:9])[H:10].[N:3](=[C:4]=[O:5])[H:13]"
C       -1.57939038       1.27846242       0.46151528
C       -1.13849097      -0.15608332       0.63292438
N       -0.74472523      -1.23187349      -1.24406634
C        0.48101190      -1.63222779      -1.25529137
O        1.19954415      -2.53865423      -1.53969433
O        0.86344703      -0.23479434      -0.13110600
C        2.15788661       0.17264583       0.22960861
H       -2.02849770       1.43537368      -0.51903907
H       -2.33403382       1.53156747       1.21137946
H       -0.75249631       1.97519428       0.59658673
H       -0.76379690      -0.31750444       1.64823004
H       -2.02343989      -0.79536418       0.65536649
H       -0.79171582      -0.33796383      -1.71575311
H        2.26948770       1.21287170      -0.08566821
H        2.27825293       0.08903918       1.31207135
H        2.90695670      -0.45068894      -0.25706392
16
Frame=13 idx=010039 GeodesicLength=1.6194053500126357 rxn_smarts="[C:1]([C:2]([N:3]([C:4](=[O:5])[O:6][C:7]([H:14])([H:15])[H:16])[H:13])([H:11])[H:12])([H:8])([H:9])[H:10]>>[C:1]([C:2]([O:6][C:7]([H:14])([H:15])[H:16])([H:11])[H:12])([H:8])([H:9])[H:10].[N:3](=[C:4]=[O:5])[H:13]"
C       -1.58182313       1.27769483       0.47512764
C       -1.13413886      -0.16148143       0.61680705
N       -0.73750315      -1.23434074      -1.26038153
C        0.47921413      -1.65933572      -1.28491842
O        1.15705592      -2.61425341      -1.49592094
O        0.87328584      -0.20496685      -0.16653782
C        2.16425848       0.19181127       0.21652878
H       -2.00915247       1.45760383      -0.51171085
H       -2.35779047       1.50905949       1.20953707
H       -0.76314715       1.97575647       0.64741513
H       -0.77893379      -0.33900932       1.63757647
H       -2.02872611      -0.78992654       0.64075263
H       -0.75680066      -0.31040199      -1.67322108
H        2.29121741       1.22800922      -0.10516329
H        2.26393301       0.11522870       1.30183036
H        2.91905101      -0.44144782      -0.24772120
16
Frame=14 idx=010039 GeodesicLength=1.7388520040835607 rxn_smarts="[C:1]([C:2]([N:3]([C:4](=[O:5])[O:6][C:7]([H:14])([H:15])[H:16])[H:13])([H:11])[H:12])([H:8])([H:9])[H:10]>>[C:1]([C:2]([O:6][C:7]([H:14])([H:15])[H:16])([H:11])[H:12])([H:8])([H:9])[H:10].[N:3](=[C:4]=[O:5])[H:13]"
C       -1.58242694       1.27628155       0.48800797
C       -1.12923844      -0.16720655       0.60190115
N       -0.73020356      -1.23695271      -1.27569464
C        0.47657254      -1.68717771      -1.31607093
O        1.11081154      -2.68308239      -1.45523128
O        0.88344046      -0.17697617      -0.19998955
C        2.16998592       0.21161130       0.20449909
H       -1.98651230       1.47919899      -0.50465886
H       -2.37970954       1.48800579       1.20473656
H       -0.77215756       1.97375030       0.69768859
H       -0.79477029      -0.36019836       1.62804042
H       -2.03372303      -0.78417637       0.62689646
H       -0.72323308      -0.28896553      -1.63121661
H        2.31066167       1.24378902      -0.12337995
H        2.24969248       0.14208085       1.29214092
H        2.93081014      -0.42998199      -0.23766936
16
Frame=15 idx=010039 GeodesicLength=1.8582008574577253 rxn_smarts="[C:1]([C:2]([N:3]([C:4](=[O:5])[O:6][C:7]([H:14])([H:15])[H:16])[H:13])([H:11])[H:12])([H:8])([H:9])[H:10]>>[C:1]([C:2]([O:6][C:7]([H:14])([H:15])[H:16])([H:11])[H:12])([H:8])([H:9])[H:10].[N:3](=[C:4]=[O:5])[H:13]"
C       -1.58153068       1.27449302       0.49987226
C       -1.12398424      -0.17303115       0.58859999
N       -0.72300182      -1.24039353      -1.28909319
C        0.47270307      -1.71645212      -1.34766122
O        1.06254615      -2.74512147      -1.42088541
O        0.89381753      -0.15073654      -0.23109695
C        2.17520792       0.23181198       0.19371561
H       -1.96103518       1.49979042      -0.49816694
H       -2.39997051       1.46903913       1.19677774
H       -0.77997086       1.96973623       0.74656325
H       -0.81145742      -0.38026941       1.62007345
H       -2.03858570      -0.77788462       0.61446096
H       -0.69088190      -0.27368501      -1.58936479
H        2.32782252       1.26022610      -0.13963970
H        2.23598122       0.16871721       1.28318741
H        2.94233992      -0.41624025      -0.22734248
16
Frame=16 idx=010039 GeodesicLength=1.9774453008285444 rxn_smarts="[C:1]([C:2]([N:3]([C:4](=[O:5])[O:6][C:7]([H:14])([H:15])[H:16])[H:13])([H:11])[H:12])([H:8])([H:9])[H:10]>>[C:1]([C:2]([O:6][C:7]([H:14])([H:15])[H:16])([H:11])[H:12])([H:8])([H:9])[H:10].[N:3](=[C:4]=[O:5])[H:13]"
C       -1.57945687       1.27253955       0.51059106
C       -1.11848120      -0.17880780       0.57712618
N       -0.71598788      -1.24500609      -1.30006863
C        0.46737240      -1.74728885      -1.37932107
O        1.01347531      -2.80144198      -1.39437619
O        0.90435352      -0.12594851      -0.25980487
C        2.18005873       0.25229967       0.18423679
H       -1.93318091       1.51914943      -0.49237501
H       -2.41875834       1.45247003       1.18568928
H       -0.78705255       1.96427637       0.79353718
H       -0.82902147      -0.39870337       1.61393006
H       -2.04334554      -0.77096094       0.60382426
H       -0.65964128      -0.26424568      -1.54744561
H        2.34279678       1.27745314      -0.15339223
H        2.22310311       0.19438061       1.27505562
H        2.95376620      -0.40016557      -0.21720684
