14
Frame=0 idx=007017 GeodesicLength=0.0 rxn_smarts="[C:1]([C@@:2]1([H:11])[C:3]([H:12])=[C:4]([H:13])[N:5]([H:14])[C:6]1=[O:7])([H:8])([H:9])[H:10]>>[C:1]([C:2]1=[C:6]([O-:7])[N+:5]([H:14])=[C:4]([H:13])[C:3]1([H:11])[H:12])([H:8])([H:9])[H:10]"
C       -1.96506755       0.11019962       0.15075994
C       -0.48719048      -0.01953095       0.04380163
C        0.53045624       1.06087621       0.25269504
C        1.78724649       0.44912472       0.16081080
N        1.58581100      -0.83762225      -0.15085302
C        0.21888134      -1.21769174      -0.24243838
O       -0.14521509      -2.35772518      -0.51429317
H       -2.33125048       1.05289741      -0.26207671
H       -2.29606971       0.05909829       1.19262648
H       -2.43942962      -0.70948349      -0.38945836
H        0.12817551       1.01462143      -0.85662984
H        0.33471087       2.01793578       0.71206513
H        2.76823842       0.88006297       0.27077306
H        2.31070301      -1.50276283      -0.36778259
14
Frame=1 idx=007017 GeodesicLength=0.0529129314763795 rxn_smarts="[C:1]([C@@:2]1([H:11])[C:3]([H:12])=[C:4]([H:13])[N:5]([H:14])[C:6]1=[O:7])([H:8])([H:9])[H:10]>>[C:1]([C:2]1=[C:6]([O-:7])[N+:5]([H:14])=[C:4]([H:13])[C:3]1([H:11])[H:12])([H:8])([H:9])[H:10]"
C       -1.96382112       0.10991360       0.15331391
C       -0.48725285      -0.01295073       0.01977507
C        0.53026457       1.06312373       0.24293987
C        1.78590812       0.44758001       0.16372303
N        1.58708380      -0.84078156      -0.14236893
C        0.21812317      -1.21693158      -0.24974454
O       -0.14524521      -2.35349606      -0.53272114
H       -2.34094612       1.04883427      -0.25841583
H       -2.27568767       0.06354192       1.20122577
H       -2.44335975      -0.71496743      -0.37428225
H        0.11806501       1.02446861      -0.87794722
H        0.33655795       2.01312912       0.71829915
H        2.76683501       0.87729961       0.28134844
H        2.31347509      -1.50876351      -0.34514533
14
Frame=2 idx=007017 GeodesicLength=0.10584143233574869 rxn_smarts="[C:1]([C@@:2]1([H:11])[C:3]([H:12])=[C:4]([H:13])[N:5]([H:14])[C:6]1=[O:7])([H:8])([H:9])[H:10]>>[C:1]([C:2]1=[C:6]([O-:7])[N+:5]([H:14])=[C:4]([H:13])[C:3]1([H:11])[H:12])([H:8])([H:9])[H:10]"
C       -1.96212956       0.10958989       0.15596814
C       -0.48727944      -0.00632009      -0.00434731
C        0.53004954       1.06537338       0.23313068
C        1.78440072       0.44597993       0.16677241
N        1.58801171      -0.84399759      -0.13346952
C        0.21722708      -1.21599938      -0.25743423
O       -0.14512876      -2.34904900      -0.55164294
H       -2.35040435       1.04472485      -0.25414947
H       -2.25476461       0.06768825       1.20953852
H       -2.44667305      -0.72026507      -0.35911484
H        0.10754188       1.03451636      -0.89944297
H        0.33825952       2.00810386       0.72426356
H        2.76523313       0.87460109       0.29139916
H        2.31565618      -1.51494648      -0.32147119
14
Frame=3 idx=007017 GeodesicLength=0.15878506895748518 rxn_smarts="[C:1]([C@@:2]1([H:11])[C:3]([H:12])=[C:4]([H:13])[N:5]([H:14])[C:6]1=[O:7])([H:8])([H:9])[H:10]>>[C:1]([C:2]1=[C:6]([O-:7])[N+:5]([H:14])=[C:4]([H:13])[C:3]1([H:11])[H:12])([H:8])([H:9])[H:10]"
C       -1.95999268       0.10922945       0.15868254
C       -0.48726055       0.00034895      -0.02842348
C        0.52982830       1.06761821       0.22333047
C        1.78273038       0.44430898       0.17001617
N        1.58857936      -0.84728724      -0.12406989
C        0.21620803      -1.21489763      -0.26546850
O       -0.14485095      -2.34441998      -0.57087416
H       -2.35956625       1.04056580      -0.24936152
H       -2.23340850       0.07155908       1.21750176
H       -2.44933333      -0.72538451      -0.34403571
H        0.09656765       1.04472593      -0.92103994
H        0.33983451       2.00289636       0.72995338
H        2.76346496       0.87195151       0.30089650
H        2.31719908      -1.52121490      -0.29710762
14
Frame=4 idx=007017 GeodesicLength=0.21174578012761675 rxn_smarts="[C:1]([C@@:2]1([H:11])[C:3]([H:12])=[C:4]([H:13])[N:5]([H:14])[C:6]1=[O:7])([H:8])([H:9])[H:10]>>[C:1]([C:2]1=[C:6]([O-:7])[N+:5]([H:14])=[C:4]([H:13])[C:3]1([H:11])[H:12])([H:8])([H:9])[H:10]"
C       -1.95741444       0.10882482       0.16144308
C       -0.48718681       0.00705333      -0.05234261
C        0.52961951       1.06985952       0.21357747
C        1.78090772       0.44256880       0.17343734
N        1.58877241      -0.85064342      -0.11418229
C        0.21508620      -1.21361101      -0.27388809
O       -0.14439769      -2.33960888      -0.59038795
H       -2.36839710       1.03635457      -0.24407363
H       -2.21169285       0.07513638       1.22509423
H       -2.45132192      -0.73033292      -0.32910553
H        0.08507205       1.05509568      -0.94267394
H        0.34131135       1.99753708       0.73537657
H        2.76156914       0.86934626       0.30974605
H        2.31807244      -1.52758021      -0.27202071
14
Frame=5 idx=007017 GeodesicLength=0.26472480678988997 rxn_smarts="[C:1]([C@@:2]1([H:11])[C:3]([H:12])=[C:4]([H:13])[N:5]([H:14])[C:6]1=[O:7])([H:8])([H:9])[H:10]>>[C:1]([C:2]1=[C:6]([O-:7])[N+:5]([H:14])=[C:4]([H:13])[C:3]1([H:11])[H:12])([H:8])([H:9])[H:10]"
C       -1.95440816       0.10837411       0.16422023
C       -0.48704928       0.01378975      -0.07599500
C        0.52944299       1.07209675       0.20391881
C        1.77894354       0.44075062       0.17706957
N        1.58857887      -0.85406823      -0.10377672
C        0.21388647      -1.21213567      -0.28268329
O       -0.14375838      -2.33463897      -0.61006243
H       -2.37686273       1.03208990      -0.23834610
H       -2.18971028       0.07842447       1.23228240
H       -2.45262673      -0.73512014      -0.31439317
H        0.07300819       1.06560698      -0.96427975
H        0.34271397       1.99206159       0.74053960
H        2.75958576       0.86676912       0.31789779
H        2.31825577      -1.53400029      -0.24639195
14
Frame=6 idx=007017 GeodesicLength=0.31769302383453046 rxn_smarts="[C:1]([C@@:2]1([H:11])[C:3]([H:12])=[C:4]([H:13])[N:5]([H:14])[C:6]1=[O:7])([H:8])([H:9])[H:10]>>[C:1]([C:2]1=[C:6]([O-:7])[N+:5]([H:14])=[C:4]([H:13])[C:3]1([H:11])[H:12])([H:8])([H:9])[H:10]"
C       -1.95103393       0.10794320       0.16682079
C       -0.48682938       0.02049545      -0.09911463
C        0.52931954       1.07427554       0.19456942
C        1.77682327       0.43873679       0.18144136
N        1.58799763      -0.85767015      -0.09239922
C        0.21263204      -1.21059318      -0.29131359
O       -0.14296805      -2.32978426      -0.62881393
H       -2.38483893       1.02780320      -0.23263422
H       -2.16783474       0.08166932       1.23882756
H       -2.45323267      -0.73972524      -0.30012156
H        0.06053271       1.07601587      -0.98570319
H        0.34400947       1.98654895       0.74544174
H        2.75753647       0.86414538       0.32560841
H        2.31788657      -1.53986086      -0.22260894
14
Frame=7 idx=007017 GeodesicLength=0.3706838800857355 rxn_smarts="[C:1]([C@@:2]1([H:11])[C:3]([H:12])=[C:4]([H:13])[N:5]([H:14])[C:6]1=[O:7])([H:8])([H:9])[H:10]>>[C:1]([C:2]1=[C:6]([O-:7])[N+:5]([H:14])=[C:4]([H:13])[C:3]1([H:11])[H:12])([H:8])([H:9])[H:10]"
C       -1.94726595       0.10745079       0.16944389
C       -0.48652965       0.02724287      -0.12184903
C        0.52926425       1.07646589       0.18533490
C        1.77458001       0.43665902       0.18596885
N        1.58700879      -0.86130498      -0.08060696
C        0.21135416      -1.20883277      -0.30040795
O       -0.14197190      -2.32473403      -0.64785971
H       -2.39244341       1.02345861      -0.22647983
H       -2.14577967       0.08458364       1.24500621
H       -2.45318096      -0.74419167      -0.28612136
H        0.04735438       1.08657988      -1.00702981
H        0.34528214       1.98099200       0.75007904
H        2.75547193       0.86152554       0.33246873
H        2.31685590      -1.54589479      -0.19794696
14
Frame=8 idx=007017 GeodesicLength=0.4236951827732841 rxn_smarts="[C:1]([C@@:2]1([H:11])[C:3]([H:12])=[C:4]([H:13])[N:5]([H:14])[C:6]1=[O:7])([H:8])([H:9])[H:10]>>[C:1]([C:2]1=[C:6]([O-:7])[N+:5]([H:14])=[C:4]([H:13])[C:3]1([H:11])[H:12])([H:8])([H:9])[H:10]"
C       -1.94312797       0.10690652       0.17205747
C       -0.48614341       0.03402448      -0.14412226
C        0.52929772       1.07866606       0.17623784
C        1.77221644       0.43448864       0.19077299
N        1.58560295      -0.86499726      -0.06829669
C        0.21007900      -1.20688344      -0.30983177
O       -0.14076455      -2.31952909      -0.66702239
H       -2.39965700       1.01904043      -0.22001039
H       -2.12363262       0.08725712       1.25079356
H       -2.45247828      -0.74855157      -0.27239806
H        0.03347428       1.09722189      -1.02823659
H        0.34654219       1.97545637       0.75439077
H        2.75341269       0.85884708       0.33864664
H        2.31517856      -1.55194723      -0.17298114
14
Frame=9 idx=007017 GeodesicLength=0.47672611078423366 rxn_smarts="[C:1]([C@@:2]1([H:11])[C:3]([H:12])=[C:4]([H:13])[N:5]([H:14])[C:6]1=[O:7])([H:8])([H:9])[H:10]>>[C:1]([C:2]1=[C:6]([O-:7])[N+:5]([H:14])=[C:4]([H:13])[C:3]1([H:11])[H:12])([H:8])([H:9])[H:10]"
C       -1.93864133       0.10631862       0.17464038
C       -0.48566468       0.04083778      -0.16589278
C        0.52943750       1.08087630       0.16728560
C        1.76973112       0.43220616       0.19594060
N        1.58377394      -0.86875164      -0.05544578
C        0.20883130      -1.20476337      -0.31949699
O       -0.13934349      -2.31420053      -0.68615483
H       -2.40647351       1.01453761      -0.21331483
H       -2.10145094       0.08975616       1.25618249
H       -2.45113796      -0.75282859      -0.25895024
H        0.01888126       1.10788810      -1.04931351
H        0.34779884       1.97000025       0.75832561
H        2.75136590       0.85605057       0.34431103
H        2.31289205      -1.55792743      -0.14811674
14
Frame=10 idx=007017 GeodesicLength=0.5298041940962765 rxn_smarts="[C:1]([C@@:2]1([H:11])[C:3]([H:12])=[C:4]([H:13])[N:5]([H:14])[C:6]1=[O:7])([H:8])([H:9])[H:10]>>[C:1]([C:2]1=[C:6]([O-:7])[N+:5]([H:14])=[C:4]([H:13])[C:3]1([H:11])[H:12])([H:8])([H:9])[H:10]"
C       -1.93377041       0.10561237       0.17732326
C       -0.48510189       0.04776078      -0.18730231
C        0.52970378       1.08315609       0.15833725
C        1.76715887       0.42989620       0.20107410
N        1.58149195      -0.87248460      -0.04237000
C        0.20765129      -1.20234956      -0.32987807
O       -0.13763169      -2.30851541      -0.70611587
H       -2.41297050       1.00990547      -0.20604626
H       -2.07898784       0.09184309       1.26135005
H       -2.44914963      -0.75708447      -0.24567163
H        0.00335888       1.11879416      -1.07030542
H        0.34912529       1.96461486       0.76189424
H        2.74939152       0.85316002       0.34908007
H        2.30973039      -1.56430900      -0.12136943
14
Frame=11 idx=007017 GeodesicLength=0.5829075899268465 rxn_smarts="[C:1]([C@@:2]1([H:11])[C:3]([H:12])=[C:4]([H:13])[N:5]([H:14])[C:6]1=[O:7])([H:8])([H:9])[H:10]>>[C:1]([C:2]1=[C:6]([O-:7])[N+:5]([H:14])=[C:4]([H:13])[C:3]1([H:11])[H:12])([H:8])([H:9])[H:10]"
C       -1.92856895       0.10484389       0.17997855
C       -0.48444127       0.05474997      -0.20821938
C        0.53011090       1.08546728       0.14951393
C        1.76447798       0.42747913       0.20656424
N        1.57877115      -0.87624364      -0.02888121
C        0.20655685      -1.19973939      -0.34054698
O       -0.13566717      -2.30267757      -0.72609777
H       -2.41908334       1.00517542      -0.19852158
H       -2.05648401       0.09370675       1.26615711
H       -2.44653633      -0.76129351      -0.23269452
H       -0.01297573       1.12975272      -1.09114329
H        0.35048743       1.95937417       0.76506613
H        2.74747358       0.85008953       0.35330594
H        2.30587889      -1.57068475      -0.09448117
14
Frame=12 idx=007017 GeodesicLength=0.6360125234662937 rxn_smarts="[C:1]([C@@:2]1([H:11])[C:3]([H:12])=[C:4]([H:13])[N:5]([H:14])[C:6]1=[O:7])([H:8])([H:9])[H:10]>>[C:1]([C:2]1=[C:6]([O-:7])[N+:5]([H:14])=[C:4]([H:13])[C:3]1([H:11])[H:12])([H:8])([H:9])[H:10]"
C       -1.92309572       0.10408421       0.18250539
C       -0.48366838       0.06174002      -0.22852504
C        0.53067176       1.08776818       0.14088518
C        1.76165521       0.42488143       0.21277165
N        1.57565744      -0.88006752      -0.01491128
C        0.20554911      -1.19705550      -0.35103372
O       -0.13352432      -2.29689619      -0.74533866
H       -2.42476365       1.00038073      -0.19106505
H       -2.03416635       0.09560627       1.27050349
H       -2.44335153      -0.76542220      -0.22007390
H       -0.03001254       1.14052279      -1.11181851
H        0.35184131       1.95436826       0.76774587
H        2.74555284       0.84673448       0.35761705
H        2.30165483      -1.57664498      -0.06926249
14
Frame=13 idx=007017 GeodesicLength=0.6891477583311466 rxn_smarts="[C:1]([C@@:2]1([H:11])[C:3]([H:12])=[C:4]([H:13])[N:5]([H:14])[C:6]1=[O:7])([H:8])([H:9])[H:10]>>[C:1]([C:2]1=[C:6]([O-:7])[N+:5]([H:14])=[C:4]([H:13])[C:3]1([H:11])[H:12])([H:8])([H:9])[H:10]"
C       -1.91731104       0.10327103       0.18502322
C       -0.48279326       0.06880323      -0.24838021
C        0.53140361       1.09011183       0.13230342
C        1.75871075       0.42217668       0.21936534
N        1.57212282      -0.88389050      -0.00071688
C        0.20466062      -1.19418674      -0.36176782
O       -0.13114204      -2.29097766      -0.76456409
H       -2.43008299       0.99548266      -0.18335910
H       -2.01178013       0.09733447       1.27454966
H       -2.43958550      -0.76952699      -0.20768941
H       -0.04793779       1.15128377      -1.13239581
H        0.35324557       1.94960695       0.76990048
H        2.74365674       0.84310477       0.36178446
H        2.29683264      -1.58259350      -0.04405325
14
Frame=14 idx=007017 GeodesicLength=0.7423453689681918 rxn_smarts="[C:1]([C@@:2]1([H:11])[C:3]([H:12])=[C:4]([H:13])[N:5]([H:14])[C:6]1=[O:7])([H:8])([H:9])[H:10]>>[C:1]([C:2]1=[C:6]([O-:7])[N+:5]([H:14])=[C:4]([H:13])[C:3]1([H:11])[H:12])([H:8])([H:9])[H:10]"
C       -1.91117258       0.10235087       0.18761949
C       -0.48182464       0.07599957      -0.26790435
C        0.53232648       1.09254039       0.12365032
C        1.75565881       0.41940911       0.22612370
N        1.56813566      -0.88767227       0.01355778
C        0.20392656      -1.19105125      -0.37304668
O       -0.12845056      -2.28476082      -0.78431075
H       -2.43508707       0.99041770      -0.17520286
H       -1.98912030       0.09878534       1.27840804
H       -2.43520089      -0.77368509      -0.19541500
H       -0.06690323       1.16215418      -1.15291977
H        0.35475347       1.94511670       0.77147663
H        2.74180443       0.83918214       0.36570749
H        2.29115387      -1.58878657      -0.01774403
14
Frame=15 idx=007017 GeodesicLength=0.7956227280497461 rxn_smarts="[C:1]([C@@:2]1([H:11])[C:3]([H:12])=[C:4]([H:13])[N:5]([H:14])[C:6]1=[O:7])([H:8])([H:9])[H:10]>>[C:1]([C:2]1=[C:6]([O-:7])[N+:5]([H:14])=[C:4]([H:13])[C:3]1([H:11])[H:12])([H:8])([H:9])[H:10]"
C       -1.90463213       0.10127553       0.19035867
C       -0.48076848       0.08338656      -0.28720939
C        0.53346333       1.09509378       0.11481243
C        1.75251151       0.41661087       0.23288055
N        1.56365385      -0.89138357       0.02781631
C        0.20338521      -1.18757249      -0.38511640
O       -0.12538498      -2.27812593      -0.80495585
H       -2.43979970       0.98512848      -0.16642137
H       -1.96599364       0.09985587       1.28215762
H       -2.43014669      -0.77796768      -0.18315741
H       -0.08704158       1.17323225      -1.17342141
H        0.35641028       1.94092554       0.77241047
H        2.74000951       0.83493294       0.36934865
H        2.28433352      -1.59539215       0.01049714
14
Frame=16 idx=007017 GeodesicLength=0.8489729909380804 rxn_smarts="[C:1]([C@@:2]1([H:11])[C:3]([H:12])=[C:4]([H:13])[N:5]([H:14])[C:6]1=[O:7])([H:8])([H:9])[H:10]>>[C:1]([C:2]1=[C:6]([O-:7])[N+:5]([H:14])=[C:4]([H:13])[C:3]1([H:11])[H:12])([H:8])([H:9])[H:10]"
C       -1.89773240       0.10010516       0.19315261
C       -0.47961609       0.09091371      -0.30621069
C        0.53482539       1.09773175       0.10586290
C        1.74923063       0.41372300       0.23995250
N        1.55871494      -0.89505933       0.04212163
C        0.20303636      -1.18384635      -0.39760364
O       -0.12200753      -2.27124688      -0.82586981
H       -2.44416872       0.97966194      -0.15724725
H       -1.94257608       0.10071705       1.28570327
H       -2.42446237      -0.78232492      -0.17099961
H       -0.10826411       1.18431598      -1.19388242
H        0.35818006       1.93710959       0.77264196
H        2.73821691       0.83030300       0.37313736
H        2.27662302      -1.60210371       0.03924119
