12
Frame=0 idx=003814 GeodesicLength=0.0 rxn_smarts="[C:1]([C@@:2]1([H:10])[N:3]([H:11])[C@:4]1([C:5]#[N:6])[H:12])([H:7])([H:8])[H:9]>>[C:1]([C@@:2]1([H:10])[N:3]([H:11])[C:4]([H:12])=[C:5]=[N:6]1)([H:7])([H:8])[H:9]"
C       -1.17944018       0.95481023      -0.23756976
C       -0.35937130      -0.15492030       0.34131869
N        0.05156135      -1.23747111      -0.47213610
C        1.29984775      -0.99080461       0.16857591
C        2.21103298       0.16933929      -0.09786397
N        1.22573915       0.67351708       0.53829746
H       -0.76971705       1.29705263      -1.18720488
H       -2.20049368       0.59589757      -0.39517593
H       -1.20087275       1.79605635       0.45386885
H       -0.67602838      -0.48333234       1.32718424
H        0.07636017      -0.98986947      -1.45603641
H        1.52138194      -1.63027532       1.01674186
12
Frame=1 idx=003814 GeodesicLength=0.08237867998137437 rxn_smarts="[C:1]([C@@:2]1([H:10])[N:3]([H:11])[C@:4]1([C:5]#[N:6])[H:12])([H:7])([H:8])[H:9]>>[C:1]([C@@:2]1([H:10])[N:3]([H:11])[C:4]([H:12])=[C:5]=[N:6]1)([H:7])([H:8])[H:9]"
C       -1.17780149       0.95530610      -0.23870265
C       -0.35383863      -0.14842532       0.34840177
N        0.04929046      -1.23630155      -0.46594189
C        1.29576863      -0.99318146       0.16939952
C        2.19776348       0.16979692      -0.10239308
N        1.24046925       0.69789279       0.54995222
H       -0.75624335       1.30186338      -1.18167273
H       -2.19483513       0.59200227      -0.41063960
H       -1.21701254       1.79415304       0.45493835
H       -0.68301774      -0.47904786       1.32990720
H        0.06491878      -1.00560908      -1.45357755
H        1.53453828      -1.64844923       1.00032845
12
Frame=2 idx=003814 GeodesicLength=0.16475344638725375 rxn_smarts="[C:1]([C@@:2]1([H:10])[N:3]([H:11])[C@:4]1([C:5]#[N:6])[H:12])([H:7])([H:8])[H:9]>>[C:1]([C@@:2]1([H:10])[N:3]([H:11])[C:4]([H:12])=[C:5]=[N:6]1)([H:7])([H:8])[H:9]"
C       -1.17610297       0.95573285      -0.23984559
C       -0.34825066      -0.14191598       0.35552546
N        0.04695997      -1.23510888      -0.45974683
C        1.29163256      -0.99569931       0.17034366
C        2.18427139       0.17050556      -0.10551735
N        1.25544831       0.72292895       0.56101813
H       -0.74306353       1.30647044      -1.17614932
H       -2.18898185       0.58814186      -0.42576345
H       -1.23288894       1.79214757       0.45558402
H       -0.69001225      -0.47460809       1.33252998
H        0.05335338      -1.02158101      -1.45078992
H        1.54763457      -1.66701396       0.98281123
12
Frame=3 idx=003814 GeodesicLength=0.24712040879553798 rxn_smarts="[C:1]([C@@:2]1([H:10])[N:3]([H:11])[C@:4]1([C:5]#[N:6])[H:12])([H:7])([H:8])[H:9]>>[C:1]([C@@:2]1([H:10])[N:3]([H:11])[C:4]([H:12])=[C:5]=[N:6]1)([H:7])([H:8])[H:9]"
C       -1.17435641       0.95608472      -0.24099321
C       -0.34260994      -0.13539069       0.36269302
N        0.04458002      -1.23387817      -0.45355772
C        1.28743101      -0.99837868       0.17144747
C        2.17061754       0.17140569      -0.10716792
N        1.27067691       0.74868413       0.57140198
H       -0.73020445       1.31087323      -1.17064917
H       -2.18295756       0.58430035      -0.44053596
H       -1.24851090       1.79003986       0.45582310
H       -0.69700913      -0.47001050       1.33505507
H        0.04170540      -1.03775229      -1.44766533
H        1.56063752      -1.68597765       0.96414868
12
Frame=4 idx=003814 GeodesicLength=0.32947540236801404 rxn_smarts="[C:1]([C@@:2]1([H:10])[N:3]([H:11])[C@:4]1([C:5]#[N:6])[H:12])([H:7])([H:8])[H:9]>>[C:1]([C@@:2]1([H:10])[N:3]([H:11])[C:4]([H:12])=[C:5]=[N:6]1)([H:7])([H:8])[H:9]"
C       -1.17257282       0.95635614      -0.24213969
C       -0.33691928      -0.12884782       0.36990894
N        0.04216127      -1.23259441      -0.44738058
C        1.28315486      -1.00124122       0.17275421
C        2.15686043       0.17243794      -0.10726682
N        1.28615531       0.77521967       0.58100347
H       -0.71769239       1.31507083      -1.16518739
H       -2.17678529       0.58046244      -0.45494535
H       -1.26388668       1.78782983       0.45567290
H       -0.70400709      -0.46525377       1.33748554
H        0.03001805      -1.05408989      -1.44419690
H        1.57351362      -1.70534975       0.94429167
12
Frame=5 idx=003814 GeodesicLength=0.41181316730740514 rxn_smarts="[C:1]([C@@:2]1([H:10])[N:3]([H:11])[C@:4]1([C:5]#[N:6])[H:12])([H:7])([H:8])[H:9]>>[C:1]([C@@:2]1([H:10])[N:3]([H:11])[C:4]([H:12])=[C:5]=[N:6]1)([H:7])([H:8])[H:9]"
C       -1.17076167       0.95654167      -0.24327862
C       -0.33118178      -0.12228611       0.37717910
N        0.03971457      -1.23124304      -0.44122031
C        1.27879473      -1.00431029       0.17431056
C        2.14305445       0.17354415      -0.10572786
N        1.30188419       0.80259809       0.58971529
H       -0.70555073       1.31906275      -1.15977828
H       -2.17048622       0.57661373      -0.46898202
H       -1.27902395       1.78551626       0.45515210
H       -0.71100699      -0.46033834       1.33982460
H        0.01833408      -1.07056160      -1.44037885
H        1.58622931      -1.72513727       0.92318429
12
Frame=6 idx=003814 GeodesicLength=0.4941286244005883 rxn_smarts="[C:1]([C@@:2]1([H:10])[N:3]([H:11])[C@:4]1([C:5]#[N:6])[H:12])([H:7])([H:8])[H:9]>>[C:1]([C@@:2]1([H:10])[N:3]([H:11])[C:4]([H:12])=[C:5]=[N:6]1)([H:7])([H:8])[H:9]"
C       -1.16893168       0.95663606      -0.24440291
C       -0.32540113      -0.11570471       0.38451046
N        0.03725202      -1.22980926      -0.43508192
C        1.27434005      -1.00761121       0.17616839
C        2.12925110       0.17466622      -0.10244788
N        1.31786409       0.83088370       0.59741800
H       -0.69380428       1.32284617      -1.15443829
H       -2.16408172       0.57274113      -0.48263253
H       -1.29392739       1.78309943       0.45427840
H       -0.71801157      -0.45526632       1.34207567
H        0.00670028      -1.08713450      -1.43620750
H        1.59875023      -1.74534672       0.90076012
12
Frame=7 idx=003814 GeodesicLength=0.5764161637954414 rxn_smarts="[C:1]([C@@:2]1([H:10])[N:3]([H:11])[C@:4]1([C:5]#[N:6])[H:12])([H:7])([H:8])[H:9]>>[C:1]([C@@:2]1([H:10])[N:3]([H:11])[C:4]([H:12])=[C:5]=[N:6]1)([H:7])([H:8])[H:9]"
C       -1.16709060       0.95663428      -0.24550484
C       -0.31958195      -0.10910338       0.39191164
N        0.03478680      -1.22827811      -0.42896984
C        1.26977935      -1.01117176       0.17838483
C        2.11549795       0.17574647      -0.09730493
N        1.33409621       0.86014103       0.60397842
H       -0.68247774       1.32641649      -1.14918535
H       -2.15759291       0.56883309      -0.49588191
H       -1.30859912       1.78058045       0.45306929
H       -0.72502598      -0.45004159       1.34424266
H       -0.00483400      -1.10377544      -1.43168067
H        1.61104199      -1.76598152       0.87694072
12
Frame=8 idx=003814 GeodesicLength=0.658669251161204 rxn_smarts="[C:1]([C@@:2]1([H:10])[N:3]([H:11])[C@:4]1([C:5]#[N:6])[H:12])([H:7])([H:8])[H:9]>>[C:1]([C@@:2]1([H:10])[N:3]([H:11])[C:4]([H:12])=[C:5]=[N:6]1)([H:7])([H:8])[H:9]"
C       -1.16524561       0.95653214      -0.24657630
C       -0.31373070      -0.10248311       0.39939368
N        0.03233309      -1.22663530      -0.42288815
C        1.26510106      -1.01502335       0.18102249
C        2.10183767       0.17672819      -0.09015573
N        1.35058365       0.89043179       0.60924924
H       -0.67159514       1.32976681      -1.14403992
H       -2.15104210       0.56488127      -0.50871425
H       -1.32303830       1.77796280       0.45154223
H       -0.73205987      -0.44467057       1.34633104
H       -0.01621774      -1.12045182      -1.42679909
H        1.62307399      -1.78703887       0.85163476
12
Frame=9 idx=003814 GeodesicLength=0.740882236735499 rxn_smarts="[C:1]([C@@:2]1([H:10])[N:3]([H:11])[C@:4]1([C:5]#[N:6])[H:12])([H:7])([H:8])[H:9]>>[C:1]([C@@:2]1([H:10])[N:3]([H:11])[C:4]([H:12])=[C:5]=[N:6]1)([H:7])([H:8])[H:9]"
C       -1.16339333       0.95632158      -0.24760583
C       -0.30785361      -0.09585031       0.40696614
N        0.02990348      -1.22486860      -0.41684109
C        1.26028806      -1.01919833       0.18413998
C        2.08828750       0.17756623      -0.08084705
N        1.36733298       0.92180921       0.61307010
H       -0.66116684       1.33288777      -1.13901221
H       -2.14443804       0.56087478      -0.52111607
H       -1.33723097       1.77524301       0.44971878
H       -0.73912563      -0.43916900       1.34833627
H       -0.02740734      -1.13713257      -1.42156101
H        1.63480375      -1.80848377       0.82475199
12
Frame=10 idx=003814 GeodesicLength=0.8230474940996124 rxn_smarts="[C:1]([C@@:2]1([H:10])[N:3]([H:11])[C@:4]1([C:5]#[N:6])[H:12])([H:7])([H:8])[H:9]>>[C:1]([C@@:2]1([H:10])[N:3]([H:11])[C:4]([H:12])=[C:5]=[N:6]1)([H:7])([H:8])[H:9]"
C       -1.16154399       0.95600054      -0.24858398
C       -0.30196261      -0.08920858       0.41464518
N        0.02751833      -1.22296163      -0.41083594
C        1.25532752      -1.02373783       0.18781656
C        2.07488781       0.17819827      -0.06915594
N        1.38435288       0.95432731       0.61523719
H       -0.65122924       1.33576167      -1.13413662
H       -2.13781412       0.55681337      -0.53305462
H       -1.35116544       1.77243620       0.44761262
H       -0.74624248      -0.43354889       1.35026777
H       -0.03833520      -1.15377893      -1.41597698
H        1.64620654      -1.83030149       0.79616476
12
Frame=11 idx=003814 GeodesicLength=0.9051569390040294 rxn_smarts="[C:1]([C@@:2]1([H:10])[N:3]([H:11])[C@:4]1([C:5]#[N:6])[H:12])([H:7])([H:8])[H:9]>>[C:1]([C@@:2]1([H:10])[N:3]([H:11])[C:4]([H:12])=[C:5]=[N:6]1)([H:7])([H:8])[H:9]"
C       -1.15969515       0.95556230      -0.24949652
C       -0.29607021      -0.08256979       0.42244528
N        0.02519597      -1.22090032      -0.40488238
C        1.25020059      -1.02868550       0.19212312
C        2.06164527       0.17857549      -0.05484075
N        1.40166160       0.98802065       0.61552203
H       -0.64180191       1.33836792      -1.12943428
H       -2.13118841       0.55269490      -0.54450122
H       -1.36481302       1.76954869       0.44524548
H       -0.75343479      -0.42783675       1.35212151
H       -0.04894486      -1.17035228      -1.41005713
H        1.65724491      -1.85242530       0.76575487
12
Frame=12 idx=003814 GeodesicLength=0.9872054198881445 rxn_smarts="[C:1]([C@@:2]1([H:10])[N:3]([H:11])[C@:4]1([C:5]#[N:6])[H:12])([H:7])([H:8])[H:9]>>[C:1]([C@@:2]1([H:10])[N:3]([H:11])[C:4]([H:12])=[C:5]=[N:6]1)([H:7])([H:8])[H:9]"
C       -1.15784815       0.95500344      -0.25032785
C       -0.29019488      -0.07594925       0.43038549
N        0.02296035      -1.21867070      -0.39899472
C        1.24488783      -1.03409348       0.19714003
C        2.04855869       0.17864456      -0.03759329
N        1.41928652       1.02290823       0.61364556
H       -0.63291460       1.34067928      -1.12493776
H       -2.12458935       0.54852535      -0.55541537
H       -1.37813671       1.76659968       0.44263908
H       -0.76073628      -0.42206581       1.35389739
H       -0.05916663      -1.18680974      -1.40382251
H        1.66789321      -1.87477156       0.73338395
12
Frame=13 idx=003814 GeodesicLength=1.0691793369275908 rxn_smarts="[C:1]([C@@:2]1([H:10])[N:3]([H:11])[C@:4]1([C:5]#[N:6])[H:12])([H:7])([H:8])[H:9]>>[C:1]([C@@:2]1([H:10])[N:3]([H:11])[C:4]([H:12])=[C:5]=[N:6]1)([H:7])([H:8])[H:9]"
C       -1.15599203       0.95431355      -0.25105389
C       -0.28435773      -0.06937720       0.43848006
N        0.02083499      -1.21625681      -0.39319938
C        1.23936903      -1.04001377       0.20292055
C        2.03559294       0.17836808      -0.01707104
N        1.43728229       1.05896803       0.60927728
H       -0.62458097       1.34266451      -1.12066333
H       -2.11803578       0.54431052      -0.56575242
H       -1.39107724       1.76359374       0.43982919
H       -0.76818961      -0.41629734       1.35557500
H       -0.06894310      -1.20310052      -1.39730120
H        1.67809719      -1.89717280       0.69895918
12
Frame=14 idx=003814 GeodesicLength=1.1510737278014331 rxn_smarts="[C:1]([C@@:2]1([H:10])[N:3]([H:11])[C@:4]1([C:5]#[N:6])[H:12])([H:7])([H:8])[H:9]>>[C:1]([C@@:2]1([H:10])[N:3]([H:11])[C:4]([H:12])=[C:5]=[N:6]1)([H:7])([H:8])[H:9]"
C       -1.15412890       0.95349178      -0.25164772
C       -0.27859043      -0.06288886       0.44674982
N        0.01885625      -1.21364377      -0.38753961
C        1.23362488      -1.04651338       0.20952978
C        2.02270078       0.17769559       0.00719330
N        1.45572092       1.09614533       0.60198532
H       -0.61684765       1.34428415      -1.11665213
H       -2.11157215       0.54007419      -0.57544290
H       -1.40356230       1.76056580       0.43685758
H       -0.77585013      -0.41060483       1.35714149
H       -0.07818779      -1.21916102      -1.39055307
H        1.68783652      -1.91944500       0.66237816
12
Frame=15 idx=003814 GeodesicLength=1.2328739745735222 rxn_smarts="[C:1]([C@@:2]1([H:10])[N:3]([H:11])[C@:4]1([C:5]#[N:6])[H:12])([H:7])([H:8])[H:9]>>[C:1]([C@@:2]1([H:10])[N:3]([H:11])[C:4]([H:12])=[C:5]=[N:6]1)([H:7])([H:8])[H:9]"
C       -1.15224882       0.95253165      -0.25206686
C       -0.27293136      -0.05654484       0.45520616
N        0.01706551      -1.21081385      -0.38208814
C        1.22764018      -1.05365316       0.21697367
C        2.00977486       0.17660371       0.03573535
N        1.47472395       1.13430537       0.59123167
H       -0.60975070       1.34549860      -1.11292282
H       -2.10523571       0.53584637      -0.58440263
H       -1.41548633       1.75753718       0.43379422
H       -0.78378561      -0.40511422       1.35855085
H       -0.08682530      -1.23490929      -1.38366217
H        1.69705933      -1.94128753       0.62365069
12
Frame=16 idx=003814 GeodesicLength=1.3145579764398199 rxn_smarts="[C:1]([C@@:2]1([H:10])[N:3]([H:11])[C@:4]1([C:5]#[N:6])[H:12])([H:7])([H:8])[H:9]>>[C:1]([C@@:2]1([H:10])[N:3]([H:11])[C:4]([H:12])=[C:5]=[N:6]1)([H:7])([H:8])[H:9]"
C       -1.15034664       0.95143078      -0.25225317
C       -0.26743348      -0.05043268       0.46385573
N        0.01551941      -1.20774268      -0.37696051
C        1.22141504      -1.06148281       0.22519567
C        1.99664509       0.17509344       0.06922045
N        1.49447993       1.17320545       0.57631467
H       -0.60334578       1.34627091      -1.10949223
H       -2.09908239       0.53167892      -0.59252038
H       -1.42671295       1.75453460       0.43074411
H       -0.79208119      -0.40001296       1.35973580
H       -0.09477230      -1.25023110      -1.37676313
H        1.70571526      -1.96231187       0.58292298
