14
Frame=0 idx=009254 GeodesicLength=0.0 rxn_smarts="[C:1]([C@@:2]([C:3](=[O:4])[H:12])([C:5](=[O:6])[N:7]([H:13])[H:14])[H:11])([H:8])([H:9])[H:10]>>[C:1]([C@@:2]([C:3](=[O:4])[H:12])(/[C:5]([O:6][H:14])=[N:7]\[H:13])[H:11])([H:8])([H:9])[H:10]"
C       -1.11148672      -1.11716461      -0.36784642
C       -0.39356486       0.23868148      -0.29845960
C       -0.91759329       1.03545810       0.87501949
O       -0.26995247       1.50913639       1.76613055
C        1.09401499       0.06504341      -0.35439893
O        1.64971529      -0.56152534      -1.33095528
N        2.03045355       0.44872703       0.45301102
H       -0.84941252      -1.73863148       0.48956800
H       -2.19381811      -0.97724626      -0.37490097
H       -0.82129258      -1.64304463      -1.27494503
H       -0.67336581       0.80503738      -1.19613261
H       -2.02110658       1.15529833       0.86261427
H        1.85548941       0.97142483       1.29803940
H        2.62191975      -0.19119458      -0.54674390
14
Frame=1 idx=009254 GeodesicLength=0.06515410532909216 rxn_smarts="[C:1]([C@@:2]([C:3](=[O:4])[H:12])([C:5](=[O:6])[N:7]([H:13])[H:14])[H:11])([H:8])([H:9])[H:10]>>[C:1]([C@@:2]([C:3](=[O:4])[H:12])(/[C:5]([O:6][H:14])=[N:7]\[H:13])[H:11])([H:8])([H:9])[H:10]"
C       -1.12080038      -1.11807621      -0.37646673
C       -0.38853711       0.22834482      -0.28532373
C       -0.91838468       1.01327971       0.89283260
O       -0.30092653       1.40377130       1.84308701
C        1.09794082       0.04844002      -0.33904216
O        1.65278577      -0.61227027      -1.29386508
N        2.04487449       0.50324951       0.41934368
H       -0.86518381      -1.75855961       0.46867888
H       -2.20198871      -0.96923410      -0.37905770
H       -0.84399127      -1.63129905      -1.29502541
H       -0.66198357       0.80799828      -1.17679500
H       -2.00854892       1.21297615       0.82758516
H        1.87586804       1.08996845       1.22195905
H        2.63887586      -0.21858899      -0.52791056
14
Frame=2 idx=009254 GeodesicLength=0.13057766161000228 rxn_smarts="[C:1]([C@@:2]([C:3](=[O:4])[H:12])([C:5](=[O:6])[N:7]([H:13])[H:14])[H:11])([H:8])([H:9])[H:10]>>[C:1]([C@@:2]([C:3](=[O:4])[H:12])(/[C:5]([O:6][H:14])=[N:7]\[H:13])[H:11])([H:8])([H:9])[H:10]"
C       -1.12992571      -1.11863102      -0.38561688
C       -0.38419530       0.21826225      -0.27366574
C       -0.91697863       0.99085652       0.91107034
O       -0.32848956       1.30317665       1.90713122
C        1.10156834       0.03347987      -0.32378089
O        1.65859501      -0.66498961      -1.25036086
N        2.05469085       0.55681521       0.38328888
H       -0.88096558      -1.77721769       0.44738229
H       -2.20987642      -0.96073572      -0.38313348
H       -0.86502009      -1.61889999      -1.31488827
H       -0.65155377       0.81103654      -1.15856147
H       -1.98653187       1.26856042       0.80362345
H        1.88217016       1.19572241       1.14395055
H        2.65651256      -0.23743584      -0.50643914
14
Frame=3 idx=009254 GeodesicLength=0.19595432525078907 rxn_smarts="[C:1]([C@@:2]([C:3](=[O:4])[H:12])([C:5](=[O:6])[N:7]([H:13])[H:14])[H:11])([H:8])([H:9])[H:10]>>[C:1]([C@@:2]([C:3](=[O:4])[H:12])(/[C:5]([O:6][H:14])=[N:7]\[H:13])[H:11])([H:8])([H:9])[H:10]"
C       -1.13806598      -1.11882712      -0.39424537
C       -0.38062933       0.20910554      -0.26382753
C       -0.91447184       0.96984090       0.92793853
O       -0.35469446       1.20966723       1.95965839
C        1.10465579       0.02155285      -0.31007310
O        1.66581555      -0.71684222      -1.20258200
N        2.06046163       0.60651740       0.34589728
H       -0.89522483      -1.79360249       0.42739680
H       -2.21672869      -0.95272357      -0.38618398
H       -0.88360181      -1.60665913      -1.33302881
H       -0.64298044       0.81385544      -1.14224495
H       -1.95783611       1.32184164       0.78726706
H        1.87897884       1.28391229       1.07007412
H        2.67432166      -0.24763876      -0.48604644
14
Frame=4 idx=009254 GeodesicLength=0.26176787387821 rxn_smarts="[C:1]([C@@:2]([C:3](=[O:4])[H:12])([C:5](=[O:6])[N:7]([H:13])[H:14])[H:11])([H:8])([H:9])[H:10]>>[C:1]([C@@:2]([C:3](=[O:4])[H:12])(/[C:5]([O:6][H:14])=[N:7]\[H:13])[H:11])([H:8])([H:9])[H:10]"
C       -1.14544063      -1.11899319      -0.40291993
C       -0.37802885       0.20072940      -0.25521185
C       -0.91193664       0.94908955       0.94441559
O       -0.38025103       1.12247225       2.00371796
C        1.10714737       0.01258079      -0.29789306
O        1.67387929      -0.76714709      -1.15082383
N        2.06339179       0.65243315       0.30737837
H       -0.90818797      -1.80861477       0.40784799
H       -2.22295912      -0.94571392      -0.38925110
H       -0.89978897      -1.59460416      -1.35040373
H       -0.63661845       0.81681219      -1.12696917
H       -1.92376462       1.37373836       0.77735622
H        1.87055676       1.36066212       0.99827250
H        2.69200107      -0.25344468      -0.46551595
14
Frame=5 idx=009254 GeodesicLength=0.32768194697809033 rxn_smarts="[C:1]([C@@:2]([C:3](=[O:4])[H:12])([C:5](=[O:6])[N:7]([H:13])[H:14])[H:11])([H:8])([H:9])[H:10]>>[C:1]([C@@:2]([C:3](=[O:4])[H:12])(/[C:5]([O:6][H:14])=[N:7]\[H:13])[H:11])([H:8])([H:9])[H:10]"
C       -1.15222562      -1.11916463      -0.41197562
C       -0.37631863       0.19284623      -0.24732492
C       -0.90973975       0.92771712       0.96084148
O       -0.40551916       1.03954265       2.04139794
C        1.10885257       0.00574274      -0.28649955
O        1.68220316      -0.81624735      -1.09385363
N        2.06384591       0.69512053       0.26745786
H       -0.92064351      -1.82279396       0.38821198
H       -2.22858540      -0.93944257      -0.39333177
H       -0.91353683      -1.58255769      -1.36732343
H       -0.63200150       0.82006580      -1.11205116
H       -1.88392588       1.42504261       0.77313602
H        1.85848204       1.42990948       0.92613267
H        2.70911259      -0.25578097      -0.44481787
14
Frame=6 idx=009254 GeodesicLength=0.39359349520372594 rxn_smarts="[C:1]([C@@:2]([C:3](=[O:4])[H:12])([C:5](=[O:6])[N:7]([H:13])[H:14])[H:11])([H:8])([H:9])[H:10]>>[C:1]([C@@:2]([C:3](=[O:4])[H:12])(/[C:5]([O:6][H:14])=[N:7]\[H:13])[H:11])([H:8])([H:9])[H:10]"
C       -1.15847549      -1.11921579      -0.42103572
C       -0.37531113       0.18563932      -0.24025316
C       -0.90778893       0.90718503       0.97640194
O       -0.43211653       0.95989926       2.07406404
C        1.10998650       0.00051964      -0.27590914
O        1.69074849      -0.86292265      -1.03279105
N        2.06256709       0.73348392       0.22750613
H       -0.93262967      -1.83571019       0.36920712
H       -2.23376438      -0.93370034      -0.39792135
H       -0.92507426      -1.57093693      -1.38335223
H       -0.62879023       0.82342223      -1.09794450
H       -1.83934307       1.47490960       0.77357210
H        1.84402335       1.49205563       0.85413382
H        2.72596826      -0.25462872      -0.42567802
14
Frame=7 idx=009254 GeodesicLength=0.4595070596323542 rxn_smarts="[C:1]([C@@:2]([C:3](=[O:4])[H:12])([C:5](=[O:6])[N:7]([H:13])[H:14])[H:11])([H:8])([H:9])[H:10]>>[C:1]([C@@:2]([C:3](=[O:4])[H:12])(/[C:5]([O:6][H:14])=[N:7]\[H:13])[H:11])([H:8])([H:9])[H:10]"
C       -1.16423893      -1.11899395      -0.43032868
C       -0.37489643       0.17913768      -0.23377979
C       -0.90594346       0.88734223       0.99137811
O       -0.46037474       0.88242664       2.10265087
C        1.11056442      -0.00337446      -0.26593969
O        1.69934355      -0.90719477      -0.96697986
N        2.05998346       0.76793921       0.18748640
H       -0.94438130      -1.84752901       0.35043562
H       -2.23850420      -0.92818510      -0.40332590
H       -0.93449489      -1.55938999      -1.39885471
H       -0.62674947       0.82719567      -1.08427923
H       -1.79033815       1.52262931       0.77886137
H        1.82764379       1.54948522       0.77993484
H        2.74238634      -0.25148868      -0.40725934
14
Frame=8 idx=009254 GeodesicLength=0.5255020171388349 rxn_smarts="[C:1]([C@@:2]([C:3](=[O:4])[H:12])([C:5](=[O:6])[N:7]([H:13])[H:14])[H:11])([H:8])([H:9])[H:10]>>[C:1]([C@@:2]([C:3](=[O:4])[H:12])(/[C:5]([O:6][H:14])=[N:7]\[H:13])[H:11])([H:8])([H:9])[H:10]"
C       -1.16953708      -1.11846312      -0.43994662
C       -0.37502328       0.17332584      -0.22771662
C       -0.90421020       0.86806935       1.00598014
O       -0.49075341       0.80649471       2.12773728
C        1.11060787      -0.00620284      -0.25635941
O        1.70780274      -0.94880112      -0.89596657
N        2.05644461       0.79881465       0.14735893
H       -0.95599884      -1.85840241       0.33169491
H       -2.24282954      -0.92278621      -0.40970056
H       -0.94180670      -1.54780808      -1.41399798
H       -0.62574025       0.83151051      -1.07079553
H       -1.73694214       1.56810163       0.78892122
H        1.80968169       1.60307970       0.70235113
H        2.75830453      -0.24693261      -0.38956033
14
Frame=9 idx=009254 GeodesicLength=0.5917678558034178 rxn_smarts="[C:1]([C@@:2]([C:3](=[O:4])[H:12])([C:5](=[O:6])[N:7]([H:13])[H:14])[H:11])([H:8])([H:9])[H:10]>>[C:1]([C@@:2]([C:3](=[O:4])[H:12])(/[C:5]([O:6][H:14])=[N:7]\[H:13])[H:11])([H:8])([H:9])[H:10]"
C       -1.17435507      -1.11766476      -0.44995750
C       -0.37570363       0.16815353      -0.22188016
C       -0.90272638       0.84916099       1.02040524
O       -0.52384661       0.73158922       2.14970420
C        1.11008837      -0.00814462      -0.24689233
O        1.71589696      -0.98735162      -0.81920185
N        2.05214640       0.82639485       0.10712982
H       -0.96745756      -1.86853730       0.31278298
H       -2.24673744      -0.91754768      -0.41714186
H       -0.94694614      -1.53614528      -1.42890603
H       -0.62571633       0.83640576      -1.05725613
H       -1.67855235       1.61167966       0.80362159
H        1.79030134       1.65317084       0.62056027
H        2.77360843      -0.24116359      -0.37296824
14
Frame=10 idx=009254 GeodesicLength=0.658132270199786 rxn_smarts="[C:1]([C@@:2]([C:3](=[O:4])[H:12])([C:5](=[O:6])[N:7]([H:13])[H:14])[H:11])([H:8])([H:9])[H:10]>>[C:1]([C@@:2]([C:3](=[O:4])[H:12])(/[C:5]([O:6][H:14])=[N:7]\[H:13])[H:11])([H:8])([H:9])[H:10]"
C       -1.17858350      -1.11653671      -0.46022514
C       -0.37682256       0.16368525      -0.21609120
C       -0.90160293       0.83095774       1.03456903
O       -0.56048614       0.65812159       2.16862771
C        1.10909262      -0.00953221      -0.23694084
O        1.72339161      -1.02204902      -0.73692615
N        2.04742373       0.85061427       0.06709890
H       -0.97867484      -1.87785467       0.29388041
H       -2.25013021      -0.91239434      -0.42563947
H       -0.94979878      -1.52442605      -1.44342151
H       -0.62632237       0.84188956      -1.04359629
H       -1.61579728       1.65264783       0.82274877
H        1.77006127       1.69912359       0.53489060
H        2.78824938      -0.23424684      -0.35897483
14
Frame=11 idx=009254 GeodesicLength=0.7246841043685591 rxn_smarts="[C:1]([C@@:2]([C:3](=[O:4])[H:12])([C:5](=[O:6])[N:7]([H:13])[H:14])[H:11])([H:8])([H:9])[H:10]>>[C:1]([C@@:2]([C:3](=[O:4])[H:12])(/[C:5]([O:6][H:14])=[N:7]\[H:13])[H:11])([H:8])([H:9])[H:10]"
C       -1.18207422      -1.11505597      -0.47062056
C       -0.37835015       0.16004780      -0.21031191
C       -0.90074657       0.81370697       1.04847497
O       -0.60150254       0.58600154       2.18450938
C        1.10763986      -0.01029338      -0.22652385
O        1.73014786      -1.05177755      -0.65023151
N        2.04251026       0.87160615       0.02734193
H       -0.98906134      -1.88641043       0.27494357
H       -2.25289216      -0.90749589      -0.43462110
H       -0.95054148      -1.51250066      -1.45755206
H       -0.62760281       0.84805632      -1.02978222
H       -1.54883865       1.69064390       0.84624917
H        1.74923892       1.74071680       0.44493186
H        2.80207304      -0.22724560      -0.34680767
14
Frame=12 idx=009254 GeodesicLength=0.7914474359153838 rxn_smarts="[C:1]([C@@:2]([C:3](=[O:4])[H:12])([C:5](=[O:6])[N:7]([H:13])[H:14])[H:11])([H:8])([H:9])[H:10]>>[C:1]([C@@:2]([C:3](=[O:4])[H:12])(/[C:5]([O:6][H:14])=[N:7]\[H:13])[H:11])([H:8])([H:9])[H:10]"
C       -1.18468872      -1.11328396      -0.48104563
C       -0.38028402       0.15725693      -0.20437497
C       -0.90041408       0.79743444       1.06218078
O       -0.64772561       0.51570122       2.19726356
C        1.10572802      -0.01044880      -0.21520166
O        1.73596816      -1.07582480      -0.55984124
N        2.03753374       0.88954438      -0.01204334
H       -0.99819587      -1.89432229       0.25595886
H       -2.25492159      -0.90310384      -0.44386821
H       -0.94918948      -1.50030002      -1.47128381
H       -0.62947867       0.85488451      -1.01569685
H       -1.47749111       1.72553104       0.87398396
H        1.72824377       1.77739092       0.35105396
H        2.81491545      -0.22045973      -0.33708542
14
Frame=13 idx=009254 GeodesicLength=0.8583344926605111 rxn_smarts="[C:1]([C@@:2]([C:3](=[O:4])[H:12])([C:5](=[O:6])[N:7]([H:13])[H:14])[H:11])([H:8])([H:9])[H:10]>>[C:1]([C@@:2]([C:3](=[O:4])[H:12])(/[C:5]([O:6][H:14])=[N:7]\[H:13])[H:11])([H:8])([H:9])[H:10]"
C       -1.18630637      -1.11114715      -0.49138342
C       -0.38254222       0.15542086      -0.19816860
C       -0.90053730       0.78228965       1.07578872
O       -0.69954573       0.44782360       2.20674464
C        1.10343794      -0.00995450      -0.20274328
O        1.74082430      -1.09353656      -0.46726361
N        2.03264416       0.90469304      -0.05162878
H       -1.00561381      -1.90157935       0.23691870
H       -2.25612701      -0.89928082      -0.45299683
H       -0.94595516      -1.48755359      -1.48464658
H       -0.63188446       0.86250162      -1.00121287
H       -1.40265345       1.75634600       0.90609281
H        1.70748532       1.80866741       0.25320267
H        2.82677379      -0.21469021      -0.32870358
14
Frame=14 idx=009254 GeodesicLength=0.9252023995726332 rxn_smarts="[C:1]([C@@:2]([C:3](=[O:4])[H:12])([C:5](=[O:6])[N:7]([H:13])[H:14])[H:11])([H:8])([H:9])[H:10]>>[C:1]([C@@:2]([C:3](=[O:4])[H:12])(/[C:5]([O:6][H:14])=[N:7]\[H:13])[H:11])([H:8])([H:9])[H:10]"
C       -1.18682557      -1.10855893      -0.50152550
C       -0.38504132       0.15464453      -0.19157877
C       -0.90104061       0.76832196       1.08945144
O       -0.75708575       0.38304487       2.21278245
C        1.10085600      -0.00867534      -0.18896222
O        1.74468753      -1.10464392      -0.37390776
N        2.02794822       0.91722208      -0.09221470
H       -1.01091310      -1.90814518       0.21782753
H       -2.25643139      -0.89607811      -0.46168639
H       -0.94104902      -1.47398276      -1.49766280
H       -0.63477976       0.87104492      -0.98617288
H       -1.32550172       1.78218824       0.94266899
H        1.68741588       1.83400584       0.15158252
H        2.83776061      -0.21038821      -0.32060191
14
Frame=15 idx=009254 GeodesicLength=0.9918181588496455 rxn_smarts="[C:1]([C@@:2]([C:3](=[O:4])[H:12])([C:5](=[O:6])[N:7]([H:13])[H:14])[H:11])([H:8])([H:9])[H:10]>>[C:1]([C@@:2]([C:3](=[O:4])[H:12])(/[C:5]([O:6][H:14])=[N:7]\[H:13])[H:11])([H:8])([H:9])[H:10]"
C       -1.18623418      -1.10531771      -0.51135264
C       -0.38762517       0.15504146      -0.18458117
C       -0.90135411       0.75548456       1.10342936
O       -0.81999579       0.32178081       2.21519432
C        1.09813537      -0.00643055      -0.17428784
O        1.74765322      -1.10915586      -0.28168412
N        2.02354793       0.92709007      -0.13456950
H       -1.01368321      -1.91388699       0.19863622
H       -2.25580817      -0.89335215      -0.46931110
H       -0.93505467      -1.45911756      -1.51042755
H       -0.63823852       0.88072038      -0.97038436
H       -1.24781484       1.80200866       0.98377887
H        1.66815011       1.85293753       0.04561595
H        2.84832204      -0.20780267      -0.31005646
14
Frame=16 idx=009254 GeodesicLength=1.058179121810342 rxn_smarts="[C:1]([C@@:2]([C:3](=[O:4])[H:12])([C:5](=[O:6])[N:7]([H:13])[H:14])[H:11])([H:8])([H:9])[H:10]>>[C:1]([C@@:2]([C:3](=[O:4])[H:12])(/[C:5]([O:6][H:14])=[N:7]\[H:13])[H:11])([H:8])([H:9])[H:10]"
C       -1.18448501      -1.10143791      -0.52079846
C       -0.39025886       0.15660032      -0.17703388
C       -0.90164597       0.74355655       1.11790106
O       -0.88846832       0.26465250       2.21377069
C        1.09534038      -0.00306302      -0.15855192
O        1.74980526      -1.10742795      -0.19116317
N        2.01942469       0.93413962      -0.17874416
H       -1.01378187      -1.91880816       0.17942465
H       -2.25423216      -0.89122181      -0.47581298
H       -0.92801336      -1.44287946      -1.52291117
H       -0.64221002       0.89155190      -0.95367109
H       -1.16993491       1.81577645       1.02930759
H        1.64981107       1.86487296      -0.06395257
H        2.85864909      -0.20631198      -0.29776459
