16
Frame=0 idx=009731 GeodesicLength=0.0 rxn_smarts="[C:1]([C@@:2]1([O:3][H:11])[C:4]([H:12])([H:13])[N:5]2[C:6]([H:14])([H:15])[C@@:7]12[H:16])([H:8])([H:9])[H:10]>>[C:1]([C@:2]12[O:3][C@@:7]1([H:16])[C:6]([H:14])([H:15])[N:5]([H:11])[C:4]2([H:12])[H:13])([H:8])([H:9])[H:10]"
C        1.65308227      -1.08737528       0.00923364
C        0.54987753      -0.07703698       0.00909089
O        0.97503841       1.20158479       0.55466914
C       -0.27799272       0.27707466      -1.23392398
N       -1.22449138       1.18946884      -0.61992284
C       -1.78967597       0.37310989       0.44656677
C       -0.50966867      -0.04964945       1.03530988
H        1.27627380      -2.04986788      -0.34134331
H        2.08433926      -1.21438119       1.00310202
H        2.44296102      -0.75974112      -0.66803656
H        0.23715300       1.77559190       0.15850611
H       -0.72234183      -0.63933702      -1.66383973
H        0.32523854       0.77155489      -1.99814596
H       -2.35088568      -0.51929559       0.09429544
H       -2.43044521       0.93111497       1.13041119
H       -0.23846244      -0.12281543       2.08402728
16
Frame=1 idx=009731 GeodesicLength=0.08607904981426631 rxn_smarts="[C:1]([C@@:2]1([O:3][H:11])[C:4]([H:12])([H:13])[N:5]2[C:6]([H:14])([H:15])[C@@:7]12[H:16])([H:8])([H:9])[H:10]>>[C:1]([C@:2]12[O:3][C@@:7]1([H:16])[C:6]([H:14])([H:15])[N:5]([H:11])[C:4]2([H:12])[H:13])([H:8])([H:9])[H:10]"
C        1.64912390      -1.09370041       0.00861125
C        0.55595902      -0.07337387       0.00736880
O        0.98006624       1.20195780       0.55660377
C       -0.27522837       0.28016612      -1.23357341
N       -1.21969160       1.18970439      -0.60676653
C       -1.79190862       0.36330717       0.44797453
C       -0.50274458      -0.03413392       1.03439824
H        1.26068426      -2.05408735      -0.33496153
H        2.08273521      -1.21780430       1.00179167
H        2.44020772      -0.77572989      -0.67194752
H        0.23335132       1.79245040       0.14846895
H       -0.71555900      -0.63358452      -1.67083310
H        0.32318172       0.78325831      -1.99588582
H       -2.33855505      -0.53597869       0.09486278
H       -2.43993420       0.91661796       1.12841830
H       -0.24168796      -0.10906921       2.08546962
16
Frame=2 idx=009731 GeodesicLength=0.17216997274119375 rxn_smarts="[C:1]([C@@:2]1([O:3][H:11])[C:4]([H:12])([H:13])[N:5]2[C:6]([H:14])([H:15])[C@@:7]12[H:16])([H:8])([H:9])[H:10]>>[C:1]([C@:2]12[O:3][C@@:7]1([H:16])[C:6]([H:14])([H:15])[N:5]([H:11])[C:4]2([H:12])[H:13])([H:8])([H:9])[H:10]"
C        1.64498997      -1.10003211       0.00805774
C        0.56206594      -0.06967158       0.00567461
O        0.98519319       1.20231527       0.55859499
C       -0.27238470       0.28333266      -1.23323349
N       -1.21500523       1.18974316      -0.59373008
C       -1.79379319       0.35338241       0.44939427
C       -0.49586340      -0.01866631       1.03339290
H        1.24485642      -2.05811083      -0.32845576
H        2.08099262      -1.22130682       1.00051150
H        2.43721028      -0.79186327      -0.67577684
H        0.22901483       1.80952286       0.13819245
H       -0.70862294      -0.62768009      -1.67791619
H        0.32114833       0.79507150      -1.99352533
H       -2.32587257      -0.55260937       0.09568141
H       -2.44897162       0.90199825       1.12641154
H       -0.24495792      -0.09542574       2.08672628
16
Frame=3 idx=009731 GeodesicLength=0.2582703172442685 rxn_smarts="[C:1]([C@@:2]1([O:3][H:11])[C:4]([H:12])([H:13])[N:5]2[C:6]([H:14])([H:15])[C@@:7]12[H:16])([H:8])([H:9])[H:10]>>[C:1]([C@:2]12[O:3][C@@:7]1([H:16])[C:6]([H:14])([H:15])[N:5]([H:11])[C:4]2([H:12])[H:13])([H:8])([H:9])[H:10]"
C        1.64068048      -1.10636727       0.00756949
C        0.56819958      -0.06593398       0.00400906
O        0.99041918       1.20264265       0.56065822
C       -0.26945557       0.28656581      -1.23290315
N       -1.21042524       1.18958663      -0.58082568
C       -1.79532154       0.34334781       0.45083160
C       -0.48902369      -0.00325756       1.03229569
H        1.22880073      -2.06192731      -0.32184504
H        2.07910460      -1.22489764       0.99925782
H        2.43396849      -0.80813058      -0.67951754
H        0.22409313       1.82681011       0.12766915
H       -0.70153242      -0.62162792      -1.68508035
H        0.31914681       0.80697621      -1.99106292
H       -2.31284008      -0.56916844       0.09674914
H       -2.45754782       0.88727282       1.12439698
H       -0.24826665      -0.08189133       2.08779752
16
Frame=4 idx=009731 GeodesicLength=0.34437762233261404 rxn_smarts="[C:1]([C@@:2]1([O:3][H:11])[C:4]([H:12])([H:13])[N:5]2[C:6]([H:14])([H:15])[C@@:7]12[H:16])([H:8])([H:9])[H:10]>>[C:1]([C@:2]12[O:3][C@@:7]1([H:16])[C:6]([H:14])([H:15])[N:5]([H:11])[C:4]2([H:12])[H:13])([H:8])([H:9])[H:10]"
C        1.63621351      -1.11269745       0.00714458
C        0.57435952      -0.06217286       0.00237467
O        0.99574486       1.20291970       0.56281753
C       -0.26644470       0.28984568      -1.23258366
N       -1.20594758       1.18923897      -0.56807585
C       -1.79649663       0.33323089       0.45229587
C       -0.48223118       0.01206799       1.03110642
H        1.21256709      -2.06552349      -0.31518309
H        2.07706776      -1.22860034       0.99803779
H        2.43051295      -0.82447903      -0.68313711
H        0.21854076       1.84431153       0.11687741
H       -0.69430948      -0.61544984      -1.69230551
H        0.31718099       0.81893319      -1.98850814
H       -2.29950126      -0.58561143       0.09806947
H       -2.46564288       0.87249779       1.12238718
H       -0.25161371      -0.06851130       2.08868244
16
Frame=5 idx=009731 GeodesicLength=0.4304945661687279 rxn_smarts="[C:1]([C@@:2]1([O:3][H:11])[C:4]([H:12])([H:13])[N:5]2[C:6]([H:14])([H:15])[C@@:7]12[H:16])([H:8])([H:9])[H:10]>>[C:1]([C@:2]12[O:3][C@@:7]1([H:16])[C:6]([H:14])([H:15])[N:5]([H:11])[C:4]2([H:12])[H:13])([H:8])([H:9])[H:10]"
C        1.63157248      -1.11902881       0.00677848
C        0.58055022      -0.05838410       0.00077059
O        1.00117991       1.20313447       0.56508141
C       -0.26333610       0.29318313      -1.23227227
N       -1.20156467       1.18870402      -0.55548002
C       -1.79730724       0.32302512       0.45378768
C       -0.47547575       0.02731913       1.02983168
H        1.19612150      -2.06890117      -0.30844030
H        2.07487938      -1.23240999       0.99683805
H        2.42681307      -0.84094781      -0.68666306
H        0.21230843       1.86203795       0.10581363
H       -0.68693016      -0.60912646      -1.69959738
H        0.31526543       0.83095868      -1.98584944
H       -2.28581811      -0.60195684       0.09963511
H       -2.47327244       0.85764212       1.12037890
H       -0.25498595      -0.05524944       2.08938695
16
Frame=6 idx=009731 GeodesicLength=0.5166286162866575 rxn_smarts="[C:1]([C@@:2]1([O:3][H:11])[C:4]([H:12])([H:13])[N:5]2[C:6]([H:14])([H:15])[C@@:7]12[H:16])([H:8])([H:9])[H:10]>>[C:1]([C@:2]12[O:3][C@@:7]1([H:16])[C:6]([H:14])([H:15])[N:5]([H:11])[C:4]2([H:12])[H:13])([H:8])([H:9])[H:10]"
C        1.62676244      -1.12536536       0.00647192
C        0.58677766      -0.05456983      -0.00080086
O        1.00674005       1.20327900       0.56746741
C       -0.26012801       0.29657641      -1.23197140
N       -1.19727710       1.18798938      -0.54305298
C       -1.79775388       0.31273940       0.45531160
C       -0.46875106       0.04248964       1.02847681
H        1.17947027      -2.07206159      -0.30163319
H        2.07254233      -1.23634700       0.99566419
H        2.42287714      -0.85753094      -0.69008544
H        0.20534515       1.88000435       0.09445982
H       -0.67940214      -0.60266051      -1.70695309
H        0.31340550       0.84304872      -1.98308994
H       -2.27180242      -0.61819700       0.10144046
H       -2.48043793       0.84271854       1.11837617
H       -0.25836799      -0.04211321       2.08991851
16
Frame=7 idx=009731 GeodesicLength=0.602773818703447 rxn_smarts="[C:1]([C@@:2]1([O:3][H:11])[C:4]([H:12])([H:13])[N:5]2[C:6]([H:14])([H:15])[C@@:7]12[H:16])([H:8])([H:9])[H:10]>>[C:1]([C@:2]12[O:3][C@@:7]1([H:16])[C:6]([H:14])([H:15])[N:5]([H:11])[C:4]2([H:12])[H:13])([H:8])([H:9])[H:10]"
C        1.62178008      -1.13170609       0.00622053
C        0.59304500      -0.05073253      -0.00233871
O        1.01243295       1.20333484       0.56999073
C       -0.25681044       0.30002218      -1.23167826
N       -1.19307784       1.18709536      -0.53080121
C       -1.79783139       0.30238102       0.45687427
C       -0.46205288       0.05757929       1.02704544
H        1.16261438      -2.07499499      -0.29477629
H        2.07004611      -1.24042178       0.99451151
H        2.41870197      -0.87422585      -0.69340285
H        0.19759723       1.89821478       0.08279700
H       -0.67171777      -0.59604977      -1.71436493
H        0.31161458       0.85519287      -1.98022526
H       -2.25744957      -0.63432199       0.10348445
H       -2.48713911       0.82773294       1.11638439
H       -0.26175330      -0.02910028       2.09027919
16
Frame=8 idx=009731 GeodesicLength=0.6889363601635252 rxn_smarts="[C:1]([C@@:2]1([O:3][H:11])[C:4]([H:12])([H:13])[N:5]2[C:6]([H:14])([H:15])[C@@:7]12[H:16])([H:8])([H:9])[H:10]>>[C:1]([C@:2]12[O:3][C@@:7]1([H:16])[C:6]([H:14])([H:15])[N:5]([H:11])[C:4]2([H:12])[H:13])([H:8])([H:9])[H:10]"
C        1.61663700      -1.13804742       0.00602153
C        0.59935261      -0.04688156      -0.00384154
O        1.01827227       1.20327960       0.57267193
C       -0.25338347       0.30350905      -1.23139356
N       -1.18896315       1.18602539      -0.51874096
C       -1.79754213       0.29197037       0.45848336
C       -0.45538118       0.07257961       1.02553875
H        1.14558773      -2.07769734      -0.28790665
H        2.06738427      -1.24465535       0.99338565
H        2.41430947      -0.89099766      -0.69659247
H        0.18900310       1.91667669       0.07080522
H       -0.66389078      -0.58930776      -1.72181927
H        0.30989926       0.86736619      -1.97726049
H       -2.24278743      -0.65030296       0.10576700
H       -2.49336356       0.81272743       1.11441236
H       -0.26513402      -0.01624430       2.09046914
16
Frame=9 idx=009731 GeodesicLength=0.7751138046640247 rxn_smarts="[C:1]([C@@:2]1([O:3][H:11])[C:4]([H:12])([H:13])[N:5]2[C:6]([H:14])([H:15])[C@@:7]12[H:16])([H:8])([H:9])[H:10]>>[C:1]([C@:2]12[O:3][C@@:7]1([H:16])[C:6]([H:14])([H:15])[N:5]([H:11])[C:4]2([H:12])[H:13])([H:8])([H:9])[H:10]"
C        1.61131448      -1.14439820       0.00587131
C        0.60570759      -0.04301215      -0.00530783
O        1.02427281       1.20310030       0.57552500
C       -0.24982948       0.30705040      -1.23111301
N       -1.18492775       1.18478239      -0.50686813
C       -1.79687553       0.28149660       0.46014085
C       -0.44872251       0.08750725       1.02396458
H        1.12835225      -2.08016773      -0.28100635
H        2.06454715      -1.24905417       0.99227618
H        2.40966864      -0.90788584      -0.69967646
H        0.17950984       1.93540742       0.05845986
H       -0.65589502      -0.58241307      -1.72932196
H        0.30827643       0.87958858      -1.97418161
H       -2.22777400      -0.66616520       0.10828324
H       -2.49912868       0.79766339       1.11245712
H       -0.26849622      -0.00349998       2.09049721
16
Frame=10 idx=009731 GeodesicLength=0.8613155498332855 rxn_smarts="[C:1]([C@@:2]1([O:3][H:11])[C:4]([H:12])([H:13])[N:5]2[C:6]([H:14])([H:15])[C@@:7]12[H:16])([H:8])([H:9])[H:10]>>[C:1]([C@:2]12[O:3][C@@:7]1([H:16])[C:6]([H:14])([H:15])[N:5]([H:11])[C:4]2([H:12])[H:13])([H:8])([H:9])[H:10]"
C        1.60581231      -1.15076634       0.00577126
C        0.61211866      -0.03912480      -0.00673588
O        1.03046429       1.20278465       0.57856353
C       -0.24614224       0.31065302      -1.23083934
N       -1.18097306       1.18337167      -0.49519319
C       -1.79583212       0.27096044       0.46185277
C       -0.44206686       0.10236859       1.02232956
H        1.11090069      -2.08240872      -0.27408532
H        2.06153114      -1.25364425       0.99119037
H        2.40478455      -0.92489581      -0.70264801
H        0.16905121       1.95442687       0.04573169
H       -0.64773201      -0.57535738      -1.73687449
H        0.30675809       0.89186883      -1.97099050
H       -2.21241037      -0.68191273       0.11103169
H       -2.50444239       0.78253751       1.11052238
H       -0.27182189       0.00913845       2.09037347
16
Frame=11 idx=009731 GeodesicLength=0.9475388789427778 rxn_smarts="[C:1]([C@@:2]1([O:3][H:11])[C:4]([H:12])([H:13])[N:5]2[C:6]([H:14])([H:15])[C@@:7]12[H:16])([H:8])([H:9])[H:10]>>[C:1]([C@:2]12[O:3][C@@:7]1([H:16])[C:6]([H:14])([H:15])[N:5]([H:11])[C:4]2([H:12])[H:13])([H:8])([H:9])[H:10]"
C        1.60011827      -1.15715481       0.00571675
C        0.61859068      -0.03521951      -0.00812467
O        1.03686412       1.20231391       0.58180229
C       -0.24230702       0.31431895      -1.23056883
N       -1.17709243       1.18178878      -0.48371683
C       -1.79439978       0.26036130       0.46362637
C       -0.43540418       0.11717796       1.02063762
H        1.09321836      -2.08441112      -0.26715881
H        2.05831335      -1.25844091       0.99012441
H        2.39964564      -0.94203740      -0.70550561
H        0.15754940       1.97374442       0.03259540
H       -0.63938555      -0.56813252      -1.74447531
H        0.30536227       0.90420519      -1.96767660
H       -2.19667280      -0.69754681       0.11401021
H       -2.50930100       0.76734233       1.10861281
H       -0.27509932       0.02169023       2.09010079
16
Frame=12 idx=009731 GeodesicLength=1.0338034073008755 rxn_smarts="[C:1]([C@@:2]1([O:3][H:11])[C:4]([H:12])([H:13])[N:5]2[C:6]([H:14])([H:15])[C@@:7]12[H:16])([H:8])([H:9])[H:10]>>[C:1]([C@:2]12[O:3][C@@:7]1([H:16])[C:6]([H:14])([H:15])[N:5]([H:11])[C:4]2([H:12])[H:13])([H:8])([H:9])[H:10]"
C        1.59421377      -1.16357898       0.00570892
C        0.62513497      -0.03129012      -0.00947292
O        1.04350126       1.20167489       0.58525428
C       -0.23830742       0.31807166      -1.23029740
N       -1.17328577       1.18004082      -0.47243695
C       -1.79256524       0.24968324       0.46546143
C       -0.42871711       0.13195930       1.01889253
H        1.07526196      -2.08617775      -0.26020400
H        2.05487899      -1.26347003       0.98907532
H        2.39422134      -0.95935574      -0.70826362
H        0.14492854       1.99338777       0.01900841
H       -0.63083095      -0.56070803      -1.75212996
H        0.30410292       0.91663257      -1.96422482
H       -2.18051071      -0.71310220       0.11721997
H       -2.51371782       0.75202883       1.10672433
H       -0.27830873       0.03420376       2.08968448
16
Frame=13 idx=009731 GeodesicLength=1.1200997787136684 rxn_smarts="[C:1]([C@@:2]1([O:3][H:11])[C:4]([H:12])([H:13])[N:5]2[C:6]([H:14])([H:15])[C@@:7]12[H:16])([H:8])([H:9])[H:10]>>[C:1]([C@:2]12[O:3][C@@:7]1([H:16])[C:6]([H:14])([H:15])[N:5]([H:11])[C:4]2([H:12])[H:13])([H:8])([H:9])[H:10]"
C        1.58810157      -1.17003820       0.00574523
C        0.63175478      -0.02734590      -0.01077713
O        1.05040287       1.20083880       0.58894205
C       -0.23413643       0.32190633      -1.23002719
N       -1.16954878       1.17812496      -0.46136492
C       -1.79032850       0.23893798       0.46737051
C       -0.42200078       0.14671670       1.01710004
H        1.05704735      -2.08770156      -0.25325995
H        2.05121301      -1.26875481       0.98805211
H        2.38852785      -0.97682579      -0.71090129
H        0.13110507       2.01336743       0.00492960
H       -0.62207504      -0.55308684      -1.75983386
H        0.30299929       0.92913719      -1.96063831
H       -2.16394126      -0.72855833       0.12066261
H       -2.51768387       0.73662359       1.10486811
H       -0.28143713       0.04665846       2.08913239
16
Frame=14 idx=009731 GeodesicLength=1.2064336986693052 rxn_smarts="[C:1]([C@@:2]1([O:3][H:11])[C:4]([H:12])([H:13])[N:5]2[C:6]([H:14])([H:15])[C@@:7]12[H:16])([H:8])([H:9])[H:10]>>[C:1]([C@:2]12[O:3][C@@:7]1([H:16])[C:6]([H:14])([H:15])[N:5]([H:11])[C:4]2([H:12])[H:13])([H:8])([H:9])[H:10]"
C        1.58177009      -1.17654164       0.00582339
C        0.63845808      -0.02338810      -0.01203388
O        1.05759885       1.19978236       0.59288709
C       -0.22977781       0.32583469      -1.22975456
N       -1.16587749       1.17604209      -0.45050147
C       -1.78767884       0.22812124       0.46936033
C       -0.41524379       0.16147016       1.01526409
H        1.03855371      -2.08898130      -0.24632953
H        2.04729921      -1.27431778       0.98705335
H        2.38254986      -0.99446664      -0.71342297
H        0.11598411       2.03370194      -0.00968909
H       -0.61310080      -0.54525086      -1.76758907
H        0.30207293       0.94173317      -1.95690463
H       -2.14693681      -0.74392578       0.12434019
H       -2.52120065       0.72111034       1.10304714
H       -0.28447066       0.05907612       2.08844962
16
Frame=15 idx=009731 GeodesicLength=1.292811186678206 rxn_smarts="[C:1]([C@@:2]1([O:3][H:11])[C:4]([H:12])([H:13])[N:5]2[C:6]([H:14])([H:15])[C@@:7]12[H:16])([H:8])([H:9])[H:10]>>[C:1]([C@:2]12[O:3][C@@:7]1([H:16])[C:6]([H:14])([H:15])[N:5]([H:11])[C:4]2([H:12])[H:13])([H:8])([H:9])[H:10]"
C        1.57520422      -1.18309832       0.00594201
C        0.64525426      -0.01941729      -0.01323958
O        1.06512235       1.19847922       0.59710825
C       -0.22521300       0.32986991      -1.22947517
N       -1.16226848       1.17378882      -0.43984711
C       -1.78460161       0.21722668       0.47143951
C       -0.40843200       0.17624309       1.01338811
H        1.01975449      -2.09000877      -0.23942207
H        2.04311247      -1.28018677       0.98607958
H        2.37627188      -1.01229800      -0.71582706
H        0.09945569       2.05440606      -0.02490283
H       -0.60388884      -0.53717829      -1.77539621
H        0.30134904       0.95443581      -1.95300862
H       -2.12946411      -0.75921333       0.12825535
H       -2.52426510       0.70546905       1.10126598
H       -0.28739125       0.07148211       2.08763987
16
Frame=16 idx=009731 GeodesicLength=1.379252857734235 rxn_smarts="[C:1]([C@@:2]1([O:3][H:11])[C:4]([H:12])([H:13])[N:5]2[C:6]([H:14])([H:15])[C@@:7]12[H:16])([H:8])([H:9])[H:10]>>[C:1]([C@:2]12[O:3][C@@:7]1([H:16])[C:6]([H:14])([H:15])[N:5]([H:11])[C:4]2([H:12])[H:13])([H:8])([H:9])[H:10]"
C        1.56837204      -1.18972763       0.00610332
C        0.65215921      -0.01542554      -0.01439327
O        1.07301601       1.19691173       0.60161945
C       -0.22041611       0.33404433      -1.22918670
N       -1.15872003       1.17136506      -0.42939862
C       -1.78106951       0.20623033       0.47361101
C       -0.40154113       0.19107303       1.01147504
H        1.00058348      -2.09078148      -0.23250879
H        2.03862245      -1.28639233       0.98513119
H        2.36964934      -1.03038221      -0.71812678
H        0.08139107       2.07550771      -0.04077175
H       -0.59440265      -0.52882495      -1.78327214
H        0.30085388       0.96729407      -1.94892898
H       -2.11144778      -0.77446194       0.13241410
H       -2.52687726       0.68963543       1.09952369
H       -0.29017302       0.08393439       2.08670924
