16
Frame=0 idx=008335 GeodesicLength=0.0 rxn_smarts="[N:1](=[C:2]1/[C:3]([H:9])([H:10])[C:4]([H:11])([H:12])[C:5]([H:13])([H:14])[C:6]([H:15])([H:16])[O:7]1)\[H:8]>>[N:1]([C:2]([C:3]([C:4]([C:5](=[C:6]([H:15])[H:16])[H:13])([H:11])[H:12])([H:9])[H:10])=[O:7])([H:8])[H:14]"
N        1.29926674       0.53515392       1.34464939
C        1.32309425       0.33752580       0.03664712
C        0.97010491      -1.06679429      -0.37575912
C       -0.57034728      -1.20044697      -0.03549283
C       -1.11652623       0.16779057       0.33573243
C       -0.99875487       1.14064906      -0.66361000
O        1.11523227       1.26577655      -0.79500823
H        1.35553366       1.54259923       1.50232532
H        1.14221564      -1.19979776      -1.44178759
H        1.53986170      -1.80777984       0.18046490
H       -0.70647326      -1.89336150       0.79374882
H       -1.08931625      -1.61263197      -0.90149219
H       -1.93331413       0.27044974       1.04647995
H       -0.16574859       0.48407193       1.15029286
H       -1.32707427       2.15717637      -0.47868540
H       -0.83775427       0.87961915      -1.69850538
16
Frame=1 idx=008335 GeodesicLength=0.09172168775344687 rxn_smarts="[N:1](=[C:2]1/[C:3]([H:9])([H:10])[C:4]([H:11])([H:12])[C:5]([H:13])([H:14])[C:6]([H:15])([H:16])[O:7]1)\[H:8]>>[N:1]([C:2]([C:3]([C:4]([C:5](=[C:6]([H:15])[H:16])[H:13])([H:11])[H:12])([H:9])[H:10])=[O:7])([H:8])[H:14]"
N        1.30570965       0.53875015       1.34546603
C        1.33452628       0.33477566       0.03894423
C        0.96553859      -1.06484477      -0.37862266
C       -0.56807963      -1.20312753      -0.02765443
C       -1.12646377       0.16434681       0.32578050
C       -0.99296589       1.14594274      -0.66414120
O        1.13252993       1.26564053      -0.79387583
H        1.38307963       1.54400905       1.50446479
H        1.12438801      -1.19283619      -1.44769943
H        1.54567019      -1.80824537       0.16318515
H       -0.69063574      -1.88203282       0.81576333
H       -1.09124282      -1.63882272      -0.87942429
H       -1.97524170       0.24846363       1.00066771
H       -0.18396724       0.48983415       1.16730298
H       -1.31932863       2.16111345      -0.46625164
H       -0.84351685       0.89703324      -1.70390523
16
Frame=2 idx=008335 GeodesicLength=0.18341270914860452 rxn_smarts="[N:1](=[C:2]1/[C:3]([H:9])([H:10])[C:4]([H:11])([H:12])[C:5]([H:13])([H:14])[C:6]([H:15])([H:16])[O:7]1)\[H:8]>>[N:1]([C:2]([C:3]([C:4]([C:5](=[C:6]([H:15])[H:16])[H:13])([H:11])[H:12])([H:9])[H:10])=[O:7])([H:8])[H:14]"
N        1.31212001       0.54260580       1.34605259
C        1.34623821       0.33188091       0.04109841
C        0.96088070      -1.06284562      -0.38133820
C       -0.56581302      -1.20571239      -0.01953149
C       -1.13652711       0.16076087       0.31577179
C       -0.98721784       1.15125046      -0.66423003
O        1.14991392       1.26527216      -0.79291977
H        1.41146472       1.54516648       1.50636336
H        1.10622525      -1.18574251      -1.45331438
H        1.55111558      -1.80869683       0.14571800
H       -0.67480499      -1.86987731       0.83796257
H       -1.09267475      -1.66531626      -0.85625297
H       -2.01659661       0.22559451       0.95178863
H       -0.20292219       0.49562784       1.18460255
H       -1.31163351       2.16481166      -0.45293305
H       -0.84976837       0.91522023      -1.70883800
16
Frame=3 idx=008335 GeodesicLength=0.2750553471718018 rxn_smarts="[N:1](=[C:2]1/[C:3]([H:9])([H:10])[C:4]([H:11])([H:12])[C:5]([H:13])([H:14])[C:6]([H:15])([H:16])[O:7]1)\[H:8]>>[N:1]([C:2]([C:3]([C:4]([C:5](=[C:6]([H:15])[H:16])[H:13])([H:11])[H:12])([H:9])[H:10])=[O:7])([H:8])[H:14]"
N        1.31848921       0.54675618       1.34638350
C        1.35822573       0.32883701       0.04309651
C        0.95611506      -1.06079913      -0.38388103
C       -0.56356016      -1.20818840      -0.01112246
C       -1.14674940       0.15702252       0.30571417
C       -0.98153840       1.15656109      -0.66385305
O        1.16735677       1.26465797      -0.79216379
H        1.44074575       1.54603752       1.50799571
H        1.08772080      -1.17853237      -1.45859280
H        1.55615015      -1.80913548       0.12810193
H       -0.65901410      -1.85687204       0.86030970
H       -1.09357047      -1.69207137      -0.83194657
H       -2.05713302       0.20182721       0.89969010
H       -0.22266107       0.50144105       1.20219993
H       -1.30403532       2.16822553      -0.43870293
H       -0.85654152       0.93423271      -1.71322891
16
Frame=4 idx=008335 GeodesicLength=0.3666382619437436 rxn_smarts="[N:1](=[C:2]1/[C:3]([H:9])([H:10])[C:4]([H:11])([H:12])[C:5]([H:13])([H:14])[C:6]([H:15])([H:16])[O:7]1)\[H:8]>>[N:1]([C:2]([C:3]([C:4]([C:5](=[C:6]([H:15])[H:16])[H:13])([H:11])[H:12])([H:9])[H:10])=[O:7])([H:8])[H:14]"
N        1.32480251       0.55124116       1.34643136
C        1.37047815       0.32564024       0.04492673
C        0.95122540      -1.05870526      -0.38622692
C       -0.56133902      -1.21054222      -0.00242375
C       -1.15717645       0.15311846       0.29560781
C       -0.97596251       1.16185909      -0.66299363
O        1.18482451       1.26378490      -0.79163166
H        1.47097386       1.54656973       1.50934648
H        1.06886751      -1.17121762      -1.46349839
H        1.56073012      -1.80956264       0.11037821
H       -0.64331197      -1.84299413       0.88277645
H       -1.09389025      -1.71904464      -0.80647790
H       -2.09652348       0.17715477       0.84423589
H       -0.24324288       0.50726798       1.22010050
H       -1.29658879       2.17130585      -0.42353665
H       -0.86386671       0.95412434      -1.71701454
16
Frame=5 idx=008335 GeodesicLength=0.45816929018966096 rxn_smarts="[N:1](=[C:2]1/[C:3]([H:9])([H:10])[C:4]([H:11])([H:12])[C:5]([H:13])([H:14])[C:6]([H:15])([H:16])[O:7]1)\[H:8]>>[N:1]([C:2]([C:3]([C:4]([C:5](=[C:6]([H:15])[H:16])[H:13])([H:11])[H:12])([H:9])[H:10])=[O:7])([H:8])[H:14]"
N        1.33103456       0.55611220       1.34615020
C        1.38298401       0.32229590       0.04656778
C        0.94621483      -1.05656268      -0.38835909
C       -0.55916783      -1.21276829       0.00653455
C       -1.16784685       0.14903421       0.28538654
C       -0.97051989       1.16714049      -0.66167014
O        1.20229043       1.26264675      -0.79135874
H        1.50220801       1.54670045       1.51039570
H        1.04971286      -1.16382811      -1.46800297
H        1.56483064      -1.80997058       0.09261684
H       -0.62780258      -1.82821465       0.90532442
H       -1.09358431      -1.74619679      -0.77988934
H       -2.13448773       0.15160670       0.78560294
H       -0.26479428       0.51307208       1.23829441
H       -1.28936861       2.17402436      -0.40739716
H       -0.87170328       0.97490794      -1.72019596
16
Frame=6 idx=008335 GeodesicLength=0.549639966435501 rxn_smarts="[N:1](=[C:2]1/[C:3]([H:9])([H:10])[C:4]([H:11])([H:12])[C:5]([H:13])([H:14])[C:6]([H:15])([H:16])[O:7]1)\[H:8]>>[N:1]([C:2]([C:3]([C:4]([C:5](=[C:6]([H:15])[H:16])[H:13])([H:11])[H:12])([H:9])[H:10])=[O:7])([H:8])[H:14]"
N        1.33718549       0.56140655       1.34551807
C        1.39572891       0.31879784       0.04801337
C        0.94105666      -1.05437259      -0.39025150
C       -0.55706665      -1.21484904       0.01576854
C       -1.17880294       0.14475071       0.27506681
C       -0.96525865       1.17238078      -0.65985505
O        1.21971794       1.26122988      -0.79136411
H        1.53450165       1.54635596       1.51114392
H        1.03022807      -1.15636979      -1.47207070
H        1.56840422      -1.81036327       0.07484432
H       -0.61248794      -1.81251795       0.92792587
H       -1.09263457      -1.77347264      -0.75211001
H       -2.17065596       0.12519908       0.72355393
H       -0.28736691       0.51885532       1.25677665
H       -1.28243108       2.17631038      -0.39028781
H       -0.88011825       0.99665877      -1.72267232
16
Frame=7 idx=008335 GeodesicLength=0.6410454002184305 rxn_smarts="[N:1](=[C:2]1/[C:3]([H:9])([H:10])[C:4]([H:11])([H:12])[C:5]([H:13])([H:14])[C:6]([H:15])([H:16])[O:7]1)\[H:8]>>[N:1]([C:2]([C:3]([C:4]([C:5](=[C:6]([H:15])[H:16])[H:13])([H:11])[H:12])([H:9])[H:10])=[O:7])([H:8])[H:14]"
N        1.34324021       0.56716386       1.34450295
C        1.40869224       0.31514657       0.04925275
C        0.93573791      -1.05213493      -0.39188635
C       -0.55505664      -1.21677821       0.02527336
C       -1.19008948       0.14024732       0.26460994
C       -0.96022229       1.17756067      -0.65755533
O        1.23707208       1.25952751      -0.79167189
H        1.56788504       1.54545211       1.51159213
H        1.01042072      -1.14885807      -1.47567502
H        1.57141993      -1.81073820       0.05710339
H       -0.59741678      -1.79589007       0.95055034
H       -1.09101789      -1.80082143      -0.72313140
H       -2.20464303       0.09798887       0.65810631
H       -0.31104830       0.52460375       1.27553337
H       -1.27584845       2.17811376      -0.37221484
H       -0.88912526       1.01941647      -1.72438971
16
Frame=8 idx=008335 GeodesicLength=0.7323886530341776 rxn_smarts="[N:1](=[C:2]1/[C:3]([H:9])([H:10])[C:4]([H:11])([H:12])[C:5]([H:13])([H:14])[C:6]([H:15])([H:16])[O:7]1)\[H:8]>>[N:1]([C:2]([C:3]([C:4]([C:5](=[C:6]([H:15])[H:16])[H:13])([H:11])[H:12])([H:9])[H:10])=[O:7])([H:8])[H:14]"
N        1.34918377       0.57342682       1.34306580
C        1.42184847       0.31134161       0.05027080
C        0.93024647      -1.04984924      -0.39324552
C       -0.55315866      -1.21854426       0.03503385
C       -1.20175324       0.13549957       0.25396742
C       -0.95545733       1.18266111      -0.65478241
O        1.25431253       1.25753053      -0.79230969
H        1.60237800       1.54389129       1.51173696
H        0.99030455      -1.14131112      -1.47878811
H        1.57384281      -1.81109472       0.03944117
H       -0.58264030      -1.77831077       0.97315427
H       -1.08870403      -1.82818268      -0.69293967
H       -2.23603876       0.07003790       0.58934102
H       -0.33595062       0.53030167       1.29454584
H       -1.26969150       2.17937982      -0.35318743
H       -0.89872213       1.04322248      -1.72530429
16
Frame=9 idx=008335 GeodesicLength=0.8236819168301979 rxn_smarts="[N:1](=[C:2]1/[C:3]([H:9])([H:10])[C:4]([H:11])([H:12])[C:5]([H:13])([H:14])[C:6]([H:15])([H:16])[O:7]1)\[H:8]>>[N:1]([C:2]([C:3]([C:4]([C:5](=[C:6]([H:15])[H:16])[H:13])([H:11])[H:12])([H:9])[H:10])=[O:7])([H:8])[H:14]"
N        1.35500566       0.58024553       1.34114120
C        1.43518419       0.30739726       0.05103619
C        0.92459900      -1.04751001      -0.39432489
C       -0.55137950      -1.22014119       0.04501610
C       -1.21380290       0.13049588       0.24302884
C       -0.95098848       1.18768219      -0.65157759
O        1.27141489       1.25524295      -0.79331929
H        1.63801958       1.54154578       1.51157416
H        0.96995111      -1.13376516      -1.48140093
H        1.57567689      -1.81141819       0.02192198
H       -0.56825517      -1.75975313       0.99569308
H       -1.08565569      -1.85549404      -0.66158011
H       -2.26466703       0.04142545       0.51762332
H       -0.36222779       0.53590498       1.31379892
H       -1.26404705       2.18007321      -0.33321827
H       -0.90882772       1.06806851      -1.72541271
16
Frame=10 idx=008335 GeodesicLength=0.9149320239123373 rxn_smarts="[N:1](=[C:2]1/[C:3]([H:9])([H:10])[C:4]([H:11])([H:12])[C:5]([H:13])([H:14])[C:6]([H:15])([H:16])[O:7]1)\[H:8]>>[N:1]([C:2]([C:3]([C:4]([C:5](=[C:6]([H:15])[H:16])[H:13])([H:11])[H:12])([H:9])[H:10])=[O:7])([H:8])[H:14]"
N        1.36072060       0.58765658       1.33869919
C        1.44867162       0.30330601       0.05154075
C        0.91876436      -1.04512114      -0.39510604
C       -0.54974653      -1.22155101       0.05524133
C       -1.22629053       0.12520201       0.23178215
C       -0.94688337       1.19259136      -0.64793047
O        1.28833765       1.25264991      -0.79472742
H        1.67478500       1.53829555       1.51113538
H        0.94932299      -1.12622752      -1.48348992
H        1.57688156      -1.81171620       0.00456065
H       -0.55424610      -1.74019368       1.01815338
H       -1.08189306      -1.88267187      -0.62896711
H       -2.28996986       0.01220364       0.44281361
H       -0.38996293       0.54142592       1.33324952
H       -1.25897259       2.18012133      -0.31232820
H       -0.91951883       1.09402910      -1.72462680
16
Frame=11 idx=008335 GeodesicLength=1.006133467098064 rxn_smarts="[N:1](=[C:2]1/[C:3]([H:9])([H:10])[C:4]([H:11])([H:12])[C:5]([H:13])([H:14])[C:6]([H:15])([H:16])[O:7]1)\[H:8]>>[N:1]([C:2]([C:3]([C:4]([C:5](=[C:6]([H:15])[H:16])[H:13])([H:11])[H:12])([H:9])[H:10])=[O:7])([H:8])[H:14]"
N        1.36633580       0.59569519       1.33568804
C        1.46228866       0.29907074       0.05176174
C        0.91274189      -1.04268462      -0.39558312
C       -0.54827439      -1.22276564       0.06569455
C       -1.23923524       0.11959704       0.22015884
C       -0.94318428       1.19737260      -0.64386121
O        1.30504930       1.24974505      -0.79657294
H        1.71263159       1.53402249       1.51042708
H        0.92844916      -1.11872756      -1.48504712
H        1.57744589      -1.81198797      -0.01260334
H       -0.54065451      -1.71960960       1.04049774
H       -1.07741797      -1.90962873      -0.59509595
H       -2.31157546      -0.01753049       0.36510265
H       -0.41927596       0.54683733       1.35286949
H       -1.25453681       2.17947738      -0.29054362
H       -0.93078767       1.12111678      -1.72289284
16
Frame=12 idx=008335 GeodesicLength=1.097298697504798 rxn_smarts="[N:1](=[C:2]1/[C:3]([H:9])([H:10])[C:4]([H:11])([H:12])[C:5]([H:13])([H:14])[C:6]([H:15])([H:16])[O:7]1)\[H:8]>>[N:1]([C:2]([C:3]([C:4]([C:5](=[C:6]([H:15])[H:16])[H:13])([H:11])[H:12])([H:9])[H:10])=[O:7])([H:8])[H:14]"
N        1.37187270       0.60439340       1.33204677
C        1.47601579       0.29468945       0.05166842
C        0.90653043      -1.04020596      -0.39575150
C       -0.54697152      -1.22376650       0.07635834
C       -1.25265329       0.11365485       0.20807368
C       -0.93992785       1.20201518      -0.63939105
O        1.32152124       1.24651358      -0.79890358
H        1.75146161       1.52860895       1.50945206
H        0.90735688      -1.11130097      -1.48606236
H        1.57735375      -1.81223930      -0.02953399
H       -0.52751519      -1.69796959       1.06268200
H       -1.07223528      -1.93625732      -0.55995541
H       -2.32910998      -0.04769924       0.28473536
H       -0.45029413       0.55211512       1.37262866
H       -1.25079411       2.17809003      -0.26788832
H       -0.94261107       1.14935831      -1.72015908
16
Frame=13 idx=008335 GeodesicLength=1.1884378602692394 rxn_smarts="[N:1](=[C:2]1/[C:3]([H:9])([H:10])[C:4]([H:11])([H:12])[C:5]([H:13])([H:14])[C:6]([H:15])([H:16])[O:7]1)\[H:8]>>[N:1]([C:2]([C:3]([C:4]([C:5](=[C:6]([H:15])[H:16])[H:13])([H:11])[H:12])([H:9])[H:10])=[O:7])([H:8])[H:14]"
N        1.37737894       0.61378271       1.32769232
C        1.48984831       0.29017369       0.05121384
C        0.90015565      -1.03768301      -0.39561635
C       -0.54583108      -1.22453077       0.08721394
C       -1.26651576       0.10737104       0.19543146
C       -0.93713073       1.20652076      -0.63454792
O        1.33773513       1.24295584      -0.80177400
H        1.79123158       1.52190296       1.50821479
H        0.88611589      -1.10399235      -1.48654226
H        1.57661930      -1.81246391      -0.04617458
H       -0.51488494      -1.67522984       1.08466602
H       -1.06635770      -1.96243070      -0.52356977
H       -2.34244797      -0.07825257       0.20205508
H       -0.48317083       0.55722337       1.39251074
H       -1.24782329       2.17591607      -0.24439224
H       -0.95492250       1.17873672      -1.71638105
16
Frame=14 idx=008335 GeodesicLength=1.2795678568494033 rxn_smarts="[N:1](=[C:2]1/[C:3]([H:9])([H:10])[C:4]([H:11])([H:12])[C:5]([H:13])([H:14])[C:6]([H:15])([H:16])[O:7]1)\[H:8]>>[N:1]([C:2]([C:3]([C:4]([C:5](=[C:6]([H:15])[H:16])[H:13])([H:11])[H:12])([H:9])[H:10])=[O:7])([H:8])[H:14]"
N        1.38291719       0.62386964       1.32257332
C        1.50377074       0.28550728       0.05036959
C        0.89360036      -1.03513377      -0.39517677
C       -0.54487255      -1.22504116       0.09827069
C       -1.28084925       0.10070734       0.18218436
C       -0.93484347       1.21086708      -0.62932009
O        1.35366748       1.23904069      -0.80524209
H        1.83173673       1.51383831       1.50673136
H        0.86470967      -1.09683841      -1.48648741
H        1.57521952      -1.81268684      -0.06251982
H       -0.50275671      -1.65135271       1.10643053
H       -1.05984768      -1.98801979      -0.48587887
H       -2.35100438      -0.10909376       0.11712191
H       -0.51800562       0.56214185       1.41245998
H       -1.24565003       2.17289696      -0.22005493
H       -0.96779201       1.20929731      -1.71146177
16
Frame=15 idx=008335 GeodesicLength=1.3706903675514632 rxn_smarts="[N:1](=[C:2]1/[C:3]([H:9])([H:10])[C:4]([H:11])([H:12])[C:5]([H:13])([H:14])[C:6]([H:15])([H:16])[O:7]1)\[H:8]>>[N:1]([C:2]([C:3]([C:4]([C:5](=[C:6]([H:15])[H:16])[H:13])([H:11])[H:12])([H:9])[H:10])=[O:7])([H:8])[H:14]"
N        1.38856356       0.63465178       1.31661175
C        1.51778158       0.28068014       0.04908653
C        0.88687831      -1.03257438      -0.39443844
C       -0.54409311      -1.22527309       0.10951275
C       -1.29562893       0.09364840       0.16826325
C       -0.93308293       1.21505222      -0.62370524
O        1.36930427       1.23473981      -0.80937744
H        1.87276705       1.50436209       1.50498076
H        0.84318072      -1.08989802      -1.48590282
H        1.57315238      -1.81292964      -0.07853303
H       -0.49115263      -1.62630064       1.12792996
H       -1.05275235      -2.01287223      -0.44689629
H       -2.35449135      -0.14013333       0.03019662
H       -0.55491496       0.56682472       1.43245526
H       -1.24430626       2.16898643      -0.19487757
H       -0.98120535       1.24103573      -1.70530606
16
Frame=16 idx=008335 GeodesicLength=1.4618236645517602 rxn_smarts="[N:1](=[C:2]1/[C:3]([H:9])([H:10])[C:4]([H:11])([H:12])[C:5]([H:13])([H:14])[C:6]([H:15])([H:16])[O:7]1)\[H:8]>>[N:1]([C:2]([C:3]([C:4]([C:5](=[C:6]([H:15])[H:16])[H:13])([H:11])[H:12])([H:9])[H:10])=[O:7])([H:8])[H:14]"
N        1.39441359       0.64611668       1.30973001
C        1.53188585       0.27568188       0.04731347
C        0.88000819      -1.03002224      -0.39340971
C       -0.54349035      -1.22520025       0.12092909
C       -1.31082888       0.08617621       0.15358781
C       -0.93186250       1.21907299      -0.61769793
O        1.38463893       1.23002426      -0.81425385
H        1.91410152       1.49344320       1.50294621
H        0.82157794      -1.08323350      -1.48480640
H        1.57042495      -1.81321568      -0.09417570
H       -0.48010853      -1.60003658       1.14912020
H       -1.04514883      -2.03682662      -0.40665083
H       -2.35257769      -0.17127050      -0.05841444
H       -0.59404636       0.57121593       1.45246018
H       -1.24382872       2.16413487      -0.16885896
H       -0.99515911       1.27393935      -1.69781915
