12
Frame=0 idx=004772 GeodesicLength=0.0 rxn_smarts="[C:1]([C:2]([C:3]([C:4]#[N:5])([H:11])[H:12])([H:9])[H:10])([H:6])([H:7])[H:8]>>[C:1]([C:2]([C:3](=[C:4]=[N:5][H:12])[H:11])([H:9])[H:10])([H:6])([H:7])[H:8]"
C       -1.61848486       0.12001850      -0.08341901
C       -0.23678671       0.73537643       0.11697348
C        0.80060728      -0.26801763       0.53749038
C        2.00688053      -0.39826670      -0.10143599
N        2.96628233      -0.65652420      -0.78226546
H       -2.35493209       0.88381100      -0.34009460
H       -1.60275184      -0.62228227      -0.88404795
H       -1.95995668      -0.37913948       0.82613022
H        0.09044555       1.22860788      -0.80130461
H       -0.30124048       1.52423125       0.87553186
H        0.64363931      -0.90403033       1.39922867
H        1.56629767      -1.26378444      -0.76278703
12
Frame=1 idx=004772 GeodesicLength=0.08148319782889511 rxn_smarts="[C:1]([C:2]([C:3]([C:4]#[N:5])([H:11])[H:12])([H:9])[H:10])([H:6])([H:7])[H:8]>>[C:1]([C:2]([C:3](=[C:4]=[N:5][H:12])[H:11])([H:9])[H:10])([H:6])([H:7])[H:8]"
C       -1.62210375       0.12226459      -0.08182718
C       -0.23611542       0.72958718       0.11173300
C        0.79480685      -0.28430466       0.52509662
C        2.01885411      -0.38414328      -0.08565339
N        2.96710998      -0.64295633      -0.77990448
H       -2.35518374       0.89020952      -0.33581396
H       -1.61541564      -0.62045932      -0.88218143
H       -1.96339179      -0.37346534       0.82969760
H        0.08921667       1.22191708      -0.80765215
H       -0.29111850       1.51779904       0.87144728
H        0.64183307      -0.90646233       1.39777134
H        1.57150815      -1.26998616      -0.76271327
12
Frame=2 idx=004772 GeodesicLength=0.16291800802873546 rxn_smarts="[C:1]([C:2]([C:3]([C:4]#[N:5])([H:11])[H:12])([H:9])[H:10])([H:6])([H:7])[H:8]>>[C:1]([C:2]([C:3](=[C:4]=[N:5][H:12])[H:11])([H:9])[H:10])([H:6])([H:7])[H:8]"
C       -1.62543989       0.12436655      -0.08024769
C       -0.23535117       0.72386131       0.10653495
C        0.78951311      -0.30025172       0.51230504
C        2.03020507      -0.36955014      -0.06963912
N        2.96724593      -0.63007865      -0.77669734
H       -2.35529094       0.89634189      -0.33134155
H       -1.62761639      -0.61855265      -0.88043158
H       -1.96629176      -0.36825049       0.83315858
H        0.08789620       1.21562178      -0.81384236
H       -0.28109632       1.51118912       0.86751998
H        0.64011903      -0.90807485       1.39589409
H        1.57610713      -1.27662217      -0.76321301
12
Frame=3 idx=004772 GeodesicLength=0.24431970911067752 rxn_smarts="[C:1]([C:2]([C:3]([C:4]#[N:5])([H:11])[H:12])([H:9])[H:10])([H:6])([H:7])[H:8]>>[C:1]([C:2]([C:3](=[C:4]=[N:5][H:12])[H:11])([H:9])[H:10])([H:6])([H:7])[H:8]"
C       -1.62847289       0.12630588      -0.07866225
C       -0.23449234       0.71825433       0.10139523
C        0.78480022      -0.31571606       0.49921124
C        2.04096634      -0.35444324      -0.05340776
N        2.96672962      -0.61805119      -0.77254918
H       -2.35526115       0.90214509      -0.32674623
H       -1.63928025      -0.61666823      -0.87871332
H       -1.96864109      -0.36344872       0.83656793
H        0.08646474       1.20975958      -0.81987515
H       -0.27122012       1.50450130       0.86373270
H        0.63844763      -0.90904925       1.39344248
H        1.57995930      -1.28358950      -0.76439569
12
Frame=4 idx=004772 GeodesicLength=0.3257018345668291 rxn_smarts="[C:1]([C:2]([C:3]([C:4]#[N:5])([H:11])[H:12])([H:9])[H:10])([H:6])([H:7])[H:8]>>[C:1]([C:2]([C:3](=[C:4]=[N:5][H:12])[H:11])([H:9])[H:10])([H:6])([H:7])[H:8]"
C       -1.63113137       0.12804481      -0.07710040
C       -0.23353036       0.71287336       0.09638270
C        0.78078011      -0.33045572       0.48599094
C        2.05113712      -0.33875876      -0.03700211
N        2.96542511      -0.60707260      -0.76766659
H       -2.35508180       0.90750831      -0.32213370
H       -1.65018311      -0.61487896      -0.87703525
H       -1.97040035      -0.35911842       0.83987619
H        0.08495842       1.20446937      -0.82565745
H       -0.26161948       1.49785628       0.86014369
H        0.63679269      -0.90950832       1.39035487
H        1.58285301      -1.29095936      -0.76615290
12
Frame=5 idx=004772 GeodesicLength=0.4070581500992334 rxn_smarts="[C:1]([C:2]([C:3]([C:4]#[N:5])([H:11])[H:12])([H:9])[H:10])([H:6])([H:7])[H:8]>>[C:1]([C:2]([C:3](=[C:4]=[N:5][H:12])[H:11])([H:9])[H:10])([H:6])([H:7])[H:8]"
C       -1.63339600       0.12957092      -0.07555390
C       -0.23247060       0.70777173       0.09151082
C        0.77749588      -0.34433765       0.47272239
C        2.06075912      -0.32242162      -0.02046125
N        2.96334743      -0.59728181      -0.76200568
H       -2.35476129       0.91237765      -0.31754056
H       -1.66025826      -0.61323512      -0.87536343
H       -1.97155056      -0.35524533       0.84310583
H        0.08336053       1.19978520      -0.83118389
H       -0.25234141       1.49133176       0.85674700
H        0.63513873      -0.90960631       1.38652707
H        1.58467642      -1.29870942      -0.76850440
12
Frame=6 idx=004772 GeodesicLength=0.48839434866983217 rxn_smarts="[C:1]([C:2]([C:3]([C:4]#[N:5])([H:11])[H:12])([H:9])[H:10])([H:6])([H:7])[H:8]>>[C:1]([C:2]([C:3](=[C:4]=[N:5][H:12])[H:11])([H:9])[H:10])([H:6])([H:7])[H:8]"
C       -1.63526873       0.13087819      -0.07400345
C       -0.23131246       0.70298572       0.08676583
C        0.77498443      -0.35729001       0.45943010
C        2.06989884      -0.30536440      -0.00378880
N        2.96047703      -0.58877962      -0.75543909
H       -2.35432451       0.91672984      -0.31297509
H       -1.66949861      -0.61179208      -0.87364512
H       -1.97208897      -0.35180090       0.84630035
H        0.08166396       1.19571895      -0.83648756
H       -0.24339858       1.48500002       0.85350570
H        0.63347042      -0.90950291       1.38187913
H        1.58539717      -1.30678280      -0.77154200
12
Frame=7 idx=004772 GeodesicLength=0.5697038640029685 rxn_smarts="[C:1]([C:2]([C:3]([C:4]#[N:5])([H:11])[H:12])([H:9])[H:10])([H:6])([H:7])[H:8]>>[C:1]([C:2]([C:3](=[C:4]=[N:5][H:12])[H:11])([H:9])[H:10])([H:6])([H:7])[H:8]"
C       -1.63675086       0.13195963      -0.07243810
C       -0.23006450       0.69854440       0.08214055
C        0.77326212      -0.36924989       0.44612360
C        2.07857605      -0.28752389       0.01300401
N        2.95690390      -0.58168023      -0.74786428
H       -2.35379155       0.92053820      -0.30843677
H       -1.67789686      -0.61058513      -0.87185815
H       -1.97200947      -0.34876710       0.84948443
H        0.07984738       1.19227990      -0.84158229
H       -0.23481040       1.47891068       0.85040588
H        0.63180446      -0.90928455       1.37637982
H        1.58492975      -1.31514202      -0.77535871
12
Frame=8 idx=004772 GeodesicLength=0.6510401948888171 rxn_smarts="[C:1]([C:2]([C:3]([C:4]#[N:5])([H:11])[H:12])([H:9])[H:10])([H:6])([H:7])[H:8]>>[C:1]([C:2]([C:3](=[C:4]=[N:5][H:12])[H:11])([H:9])[H:10])([H:6])([H:7])[H:8]"
C       -1.63786726       0.13281950      -0.07084697
C       -0.22873597       0.69445662       0.07761457
C        0.77231123      -0.38021957       0.43280405
C        2.08685153      -0.26884410       0.02996206
N        2.95273699      -0.57601858      -0.73922676
H       -2.35319222       0.92381476      -0.30391157
H       -1.68550427      -0.60963150      -0.86998262
H       -1.97133463      -0.34612226       0.85268093
H        0.07790663       1.18944453      -0.84650496
H       -0.22657543       1.47310268       0.84740982
H        0.63016200      -0.90903550       1.37005761
H        1.58324142      -1.32376657      -0.78005616
12
Frame=9 idx=004772 GeodesicLength=0.732335298956311 rxn_smarts="[C:1]([C:2]([C:3]([C:4]#[N:5])([H:11])[H:12])([H:9])[H:10])([H:6])([H:7])[H:8]>>[C:1]([C:2]([C:3](=[C:4]=[N:5][H:12])[H:11])([H:9])[H:10])([H:6])([H:7])[H:8]"
C       -1.63858204       0.13342877      -0.06924562
C       -0.22732372       0.69077305       0.07320960
C        0.77219656      -0.39009424       0.41948451
C        2.09474948      -0.24925721       0.04697845
N        2.94779536      -0.57203053      -0.72935784
H       -2.35253847       0.92649367      -0.29940031
H       -1.69222266      -0.60894037      -0.86806116
H       -1.97001144      -0.34395031       0.85585029
H        0.07582069       1.18730091      -0.85121608
H       -0.21873681       1.46760997       0.84456078
H        0.62864500      -0.90868554       1.36290434
H        1.58020806      -1.33264818      -0.78570696
12
Frame=10 idx=004772 GeodesicLength=0.813609029627728 rxn_smarts="[C:1]([C:2]([C:3]([C:4]#[N:5])([H:11])[H:12])([H:9])[H:10])([H:6])([H:7])[H:8]>>[C:1]([C:2]([C:3](=[C:4]=[N:5][H:12])[H:11])([H:9])[H:10])([H:6])([H:7])[H:8]"
C       -1.63892170       0.13378766      -0.06761370
C       -0.22583586       0.68749338       0.06889186
C        0.77289904      -0.39889512       0.40611325
C        2.10230459      -0.22872437       0.06406753
N        2.94219344      -0.56977953      -0.71804973
H       -2.35186194       0.92858206      -0.29486610
H       -1.69811844      -0.60853081      -0.86606915
H       -1.96804997      -0.34222804       0.85903157
H        0.07356884       1.18581889      -0.85576683
H       -0.21127380       1.46245763       0.84181738
H        0.62729606      -0.90825848       1.35496289
H        1.57579974      -1.34172328      -0.79251898
12
Frame=11 idx=004772 GeodesicLength=0.8949836979165892 rxn_smarts="[C:1]([C:2]([C:3]([C:4]#[N:5])([H:11])[H:12])([H:9])[H:10])([H:6])([H:7])[H:8]>>[C:1]([C:2]([C:3](=[C:4]=[N:5][H:12])[H:11])([H:9])[H:10])([H:6])([H:7])[H:8]"
C       -1.63892213       0.13390214      -0.06593672
C       -0.22427649       0.68459921       0.06462492
C        0.77439591      -0.40667812       0.39263396
C        2.10959986      -0.20713344       0.08129502
N        2.93602705      -0.56931806      -0.70518784
H       -2.35119558       0.93010998      -0.29027324
H       -1.70328125      -0.60841440      -0.86398298
H       -1.96547616      -0.34093224       0.86225529
H        0.07114442       1.18496410      -0.86020565
H       -0.20415832       1.45764671       0.83913474
H        0.62614490      -0.90779477       1.34624707
H        1.56999780      -1.35095113      -0.80060457
12
Frame=12 idx=004772 GeodesicLength=0.9762990143036571 rxn_smarts="[C:1]([C:2]([C:3]([C:4]#[N:5])([H:11])[H:12])([H:9])[H:10])([H:6])([H:7])[H:8]>>[C:1]([C:2]([C:3](=[C:4]=[N:5][H:12])[H:11])([H:9])[H:10])([H:6])([H:7])[H:8]"
C       -1.63852203       0.13374034      -0.06423638
C       -0.22263234       0.68212030       0.06043862
C        0.77673080      -0.41336308       0.37908239
C        2.11656459      -0.18451262       0.09854795
N        2.92913566      -0.57076067      -0.69060723
H       -2.35050092       0.93100031      -0.28564182
H       -1.70758763      -0.60860029      -0.86185125
H       -1.96221674      -0.34012675       0.86547317
H        0.06853916       1.18477365      -0.86448035
H       -0.19741369       1.45319028       0.83656153
H        0.62530534      -0.90714425       1.33679043
H        1.56259779      -1.36031721      -0.81007708
12
Frame=13 idx=004772 GeodesicLength=1.0577173582834445 rxn_smarts="[C:1]([C:2]([C:3]([C:4]#[N:5])([H:11])[H:12])([H:9])[H:10])([H:6])([H:7])[H:8]>>[C:1]([C:2]([C:3](=[C:4]=[N:5][H:12])[H:11])([H:9])[H:10])([H:6])([H:7])[H:8]"
C       -1.63775375       0.13330658      -0.06249695
C       -0.22090420       0.68003870       0.05629233
C        0.77988825      -0.41899698       0.36538318
C        2.12331827      -0.16077952       0.11587746
N        2.92148228      -0.57415938      -0.67414060
H       -2.34981446       0.93128163      -0.28093630
H       -1.71111961      -0.60909737      -0.85964755
H       -1.95829195      -0.33979725       0.86871847
H        0.06574950       1.18523301      -0.86864383
H       -0.19101226       1.44908232       0.83404988
H        0.62480775      -0.90632332       1.32664051
H        1.55365019      -1.36978843      -0.82109659
12
Frame=14 idx=004772 GeodesicLength=1.1391498708772068 rxn_smarts="[C:1]([C:2]([C:3]([C:4]#[N:5])([H:11])[H:12])([H:9])[H:10])([H:6])([H:7])[H:8]>>[C:1]([C:2]([C:3](=[C:4]=[N:5][H:12])[H:11])([H:9])[H:10])([H:6])([H:7])[H:8]"
C       -1.63658470       0.13258328      -0.06074432
C       -0.21906562       0.67836257       0.05221294
C        0.78389473      -0.42357842       0.35157995
C        2.12984244      -0.13601751       0.13321910
N        2.91289266      -0.57943785      -0.65577729
H       -2.34910974       0.93092508      -0.27619822
H       -1.71380350      -0.60992756      -0.85741533
H       -1.95369593      -0.33997394       0.87194684
H        0.06282299       1.18634747      -0.87265207
H       -0.18494664       1.44533764       0.83163935
H        0.62472716      -0.90521965       1.31588694
H        1.54302616      -1.37940111      -0.83369790
12
Frame=15 idx=004772 GeodesicLength=1.2206058052580475 rxn_smarts="[C:1]([C:2]([C:3]([C:4]#[N:5])([H:11])[H:12])([H:9])[H:10])([H:6])([H:7])[H:8]>>[C:1]([C:2]([C:3](=[C:4]=[N:5][H:12])[H:11])([H:9])[H:10])([H:6])([H:7])[H:8]"
C       -1.63498889       0.13156870      -0.05900807
C       -0.21709333       0.67707518       0.04821885
C        0.78873471      -0.42714133       0.33770904
C        2.13617544      -0.11031694       0.15055892
N        2.90311268      -0.58640677      -0.63562757
H       -2.34834751       0.92993457      -0.27146844
H       -1.71559722      -0.61107702      -0.85519970
H       -1.94843265      -0.34066896       0.87510911
H        0.05981473       1.18809843      -0.87647180
H       -0.17919450       1.44193073       0.82935539
H        0.62510914      -0.90375196       1.30464856
H        1.53070740      -1.38924463      -0.84782429
12
Frame=16 idx=004772 GeodesicLength=1.3020953665947255 rxn_smarts="[C:1]([C:2]([C:3]([C:4]#[N:5])([H:11])[H:12])([H:9])[H:10])([H:6])([H:7])[H:8]>>[C:1]([C:2]([C:3](=[C:4]=[N:5][H:12])[H:11])([H:9])[H:10])([H:6])([H:7])[H:8]"
C       -1.63294671       0.13027240      -0.05732711
C       -0.21495541       0.67614540       0.04433883
C        0.79437754      -0.42975890       0.32383936
C        2.14234392      -0.08385224       0.16790519
N        2.89189757      -0.59468363      -0.61397748
H       -2.34747690       0.92833974      -0.26681280
H       -1.71646887      -0.61252823      -0.85305526
H       -1.94254125      -0.34186962       0.87814575
H        0.05681845       1.19043545      -0.88005991
H       -0.17371506       1.43882988       0.82723205
H        0.62596439      -0.90186072       1.29307437
H        1.51670234      -1.39946953      -0.86330299
