12
Frame=0 idx=001406 GeodesicLength=0.0 rxn_smarts="[C:1]([C:2](=[O:3])[C:4]([C:5](=[O:6])[H:12])([H:10])[H:11])([H:7])([H:8])[H:9]>>[C:1]([H:7])([H:8])([H:9])[H:11].[C:2](=[O:3])=[C:4]([C:5](=[O:6])[H:12])[H:10]"
C        1.75891742       0.26738568      -0.08364133
C        0.03653946       0.70233547       0.05907866
O       -0.12598841       1.79170317       0.52470011
C       -0.73151864      -0.43123857      -0.21263154
C       -2.16268143      -0.49329882       0.10506219
O       -2.86347809      -1.42824597      -0.19433874
H        2.12476613      -0.73661930      -0.32465802
H        2.26260118       0.69218085       0.77931668
H        1.92518600       0.89397497      -0.95850422
H       -0.31784252      -1.20689559      -0.84571890
H        0.65622741      -0.42173878       0.48402931
H       -2.56272848       0.37045689       0.66730583
12
Frame=1 idx=001406 GeodesicLength=0.10423086632128538 rxn_smarts="[C:1]([C:2](=[O:3])[C:4]([C:5](=[O:6])[H:12])([H:10])[H:11])([H:7])([H:8])[H:9]>>[C:1]([H:7])([H:8])([H:9])[H:11].[C:2](=[O:3])=[C:4]([C:5](=[O:6])[H:12])[H:10]"
C        1.76608952       0.26915021      -0.08217784
C        0.02422575       0.71025928       0.04011506
O       -0.14382559       1.80727593       0.48217335
C       -0.73382944      -0.43925435      -0.19832739
C       -2.16780256      -0.49647241       0.11105029
O       -2.86990634      -1.42821073      -0.19394845
H        2.12377960      -0.72655310      -0.36527210
H        2.28110943       0.65393069       0.79307197
H        1.95468352       0.92689373      -0.92947177
H       -0.32401522      -1.21487371      -0.83415139
H        0.65849132      -0.42936801       0.50421618
H       -2.56900000       0.36722249       0.67272208
12
Frame=2 idx=001406 GeodesicLength=0.20841456214953946 rxn_smarts="[C:1]([C:2](=[O:3])[C:4]([C:5](=[O:6])[H:12])([H:10])[H:11])([H:7])([H:8])[H:9]>>[C:1]([H:7])([H:8])([H:9])[H:11].[C:2](=[O:3])=[C:4]([C:5](=[O:6])[H:12])[H:10]"
C        1.77333435       0.27119084      -0.08037729
C        0.01155896       0.71803518       0.01962305
O       -0.16207841       1.82214233       0.43801985
C       -0.73606846      -0.44678438      -0.18405516
C       -2.17262949      -0.49983193       0.11783372
O       -2.87602456      -1.42829400      -0.19285572
H        2.12218565      -0.71412338      -0.40682577
H        2.30011001       0.61321911       0.80587441
H        1.98434482       0.96010734      -0.89735248
H       -0.33028120      -1.22290513      -0.82208603
H        0.66082808      -0.43728510       0.52460585
H       -2.57527975       0.36452912       0.67759559
12
Frame=3 idx=001406 GeodesicLength=0.31253656615000536 rxn_smarts="[C:1]([C:2](=[O:3])[C:4]([C:5](=[O:6])[H:12])([H:10])[H:11])([H:7])([H:8])[H:9]>>[C:1]([H:7])([H:8])([H:9])[H:11].[C:2](=[O:3])=[C:4]([C:5](=[O:6])[H:12])[H:10]"
C        1.78063436       0.27352175      -0.07813765
C       -0.00148044       0.72560460      -0.00247532
O       -0.18075258       1.83627895       0.39207529
C       -0.73820298      -0.45381064      -0.16982283
C       -2.17714374      -0.50334469       0.12541729
O       -2.88186593      -1.42836698      -0.19121489
H        2.12003895      -0.69903135      -0.44922704
H        2.31970729       0.56995080       0.81742863
H        2.01389878       0.99345660      -0.86194770
H       -0.33658235      -1.23104778      -0.80942538
H        0.66323800      -0.44556164       0.54527948
H       -2.58148937       0.36235038       0.68205012
12
Frame=4 idx=001406 GeodesicLength=0.41661123942841716 rxn_smarts="[C:1]([C:2](=[O:3])[C:4]([C:5](=[O:6])[H:12])([H:10])[H:11])([H:7])([H:8])[H:9]>>[C:1]([H:7])([H:8])([H:9])[H:11].[C:2](=[O:3])=[C:4]([C:5](=[O:6])[H:12])[H:10]"
C        1.78797289       0.27613970      -0.07534444
C       -0.01491628       0.73290072      -0.02627175
O       -0.19985344       1.84964450       0.34417224
C       -0.74019874      -0.46030951      -0.15564236
C       -2.18133783      -0.50694446       0.13375840
O       -2.88745402      -1.42831647      -0.18912930
H        2.11740518      -0.68096629      -0.49234813
H        2.34001570       0.52402865       0.82739648
H        2.04305396       1.02678566      -0.82305218
H       -0.34285014      -1.23934661      -0.79608646
H        0.66571508      -0.45428132       0.56633488
H       -2.58755237       0.36066542       0.68621262
12
Frame=5 idx=001406 GeodesicLength=0.5205589908709456 rxn_smarts="[C:1]([C:2](=[O:3])[C:4]([C:5](=[O:6])[H:12])([H:10])[H:11])([H:7])([H:8])[H:9]>>[C:1]([H:7])([H:8])([H:9])[H:11].[C:2](=[O:3])=[C:4]([C:5](=[O:6])[H:12])[H:10]"
C        1.79531026       0.27902810      -0.07184623
C       -0.02873079       0.73986739      -0.05191804
O       -0.21929945       1.86219595       0.29411279
C       -0.74204062      -0.46622103      -0.14160784
C       -2.18521583      -0.51051154       0.14271878
O       -2.89271854      -1.42816529      -0.18643428
H        2.11435901      -0.65956827      -0.53606704
H        2.36104025       0.47530150       0.83548249
H        2.07152258       1.05994168      -0.78036469
H       -0.34908567      -1.24780032      -0.78207024
H        0.66820807      -0.46354823       0.58782217
H       -2.59334926       0.35948005       0.69017213
12
Frame=6 idx=001406 GeodesicLength=0.6244194722713051 rxn_smarts="[C:1]([C:2](=[O:3])[C:4]([C:5](=[O:6])[H:12])([H:10])[H:11])([H:7])([H:8])[H:9]>>[C:1]([H:7])([H:8])([H:9])[H:11].[C:2](=[O:3])=[C:4]([C:5](=[O:6])[H:12])[H:10]"
C        1.80263148       0.28213796      -0.06753218
C       -0.04294615       0.74639611      -0.07946850
O       -0.23905871       1.87381806       0.24185336
C       -0.74367979      -0.47152808      -0.12767742
C       -2.18876769      -0.51396641       0.15225746
O       -2.89767532      -1.42784652      -0.18313733
H        2.11099308      -0.63448805      -0.58019434
H        2.38294246       0.42372451       0.84117366
H        2.09891071       1.09276887      -0.73367384
H       -0.35521623      -1.25641206      -0.76729528
H        0.67074358      -0.47350199       0.60987325
H       -2.59887742       0.35889761       0.69382115
12
Frame=7 idx=001406 GeodesicLength=0.728161000258197 rxn_smarts="[C:1]([C:2](=[O:3])[C:4]([C:5](=[O:6])[H:12])([H:10])[H:11])([H:7])([H:8])[H:9]>>[C:1]([H:7])([H:8])([H:9])[H:11].[C:2](=[O:3])=[C:4]([C:5](=[O:6])[H:12])[H:10]"
C        1.80988691       0.28538815      -0.06228386
C       -0.05756625       0.75238558      -0.10902446
O       -0.25904956       1.88440392       0.18733949
C       -0.74506318      -0.47618713      -0.11386433
C       -2.19195746      -0.51718927       0.16228581
O       -2.90225657      -1.42734406      -0.17910658
H        2.10741336      -0.60537076      -0.62449222
H        2.40575864       0.36926401       0.84393501
H        2.12479539       1.12508751      -0.68270863
H       -0.36118400      -1.26516430      -0.75173967
H        0.67330110      -0.48431096       0.63259212
H       -2.60407837       0.35903731       0.69706732
12
Frame=8 idx=001406 GeodesicLength=0.8319144725513363 rxn_smarts="[C:1]([C:2](=[O:3])[C:4]([C:5](=[O:6])[H:12])([H:10])[H:11])([H:7])([H:8])[H:9]>>[C:1]([H:7])([H:8])([H:9])[H:11].[C:2](=[O:3])=[C:4]([C:5](=[O:6])[H:12])[H:10]"
C        1.81706184       0.28866429      -0.05599832
C       -0.07259292       0.75774210      -0.14072789
O       -0.27917911       1.89386487       0.13051854
C       -0.74615035      -0.48013988      -0.10022396
C       -2.19479345      -0.52004165       0.17270842
O       -2.90642723      -1.42668736      -0.17409968
H        2.10382830      -0.57187949      -0.66865782
H        2.42949887       0.31194470       0.84319298
H        2.14879160       1.15672507      -0.62717188
H       -0.36692622      -1.27401619      -0.73544587
H        0.67584419      -0.49620882       0.65607296
H       -2.60895552       0.36003236       0.69983250
12
Frame=9 idx=001406 GeodesicLength=0.9352299530697855 rxn_smarts="[C:1]([C:2](=[O:3])[C:4]([C:5](=[O:6])[H:12])([H:10])[H:11])([H:7])([H:8])[H:9]>>[C:1]([H:7])([H:8])([H:9])[H:11].[C:2](=[O:3])=[C:4]([C:5](=[O:6])[H:12])[H:10]"
C        1.82403292       0.29183275      -0.04854448
C       -0.08788560       0.76231220      -0.17486582
O       -0.29904284       1.90201246       0.07124781
C       -0.74692695      -0.48328400      -0.08696531
C       -2.19719161      -0.52234749       0.18334056
O       -2.91006458      -1.42601464      -0.16762474
H        2.10034528      -0.53354457      -0.71234658
H        2.45378418       0.25204384       0.83854163
H        2.17043563       1.18732399      -0.56656054
H       -0.37271154      -1.28286349      -0.71856914
H        0.67836822      -0.50940867       0.68021594
H       -2.61314312       0.36193763       0.70213066
12
Frame=10 idx=001406 GeodesicLength=1.0384818255061077 rxn_smarts="[C:1]([C:2](=[O:3])[C:4]([C:5](=[O:6])[H:12])([H:10])[H:11])([H:7])([H:8])[H:9]>>[C:1]([H:7])([H:8])([H:9])[H:11].[C:2](=[O:3])=[C:4]([C:5](=[O:6])[H:12])[H:10]"
C        1.83081455       0.29468368      -0.03994225
C       -0.10350772       0.76595836      -0.21148887
O       -0.31862455       1.90872956       0.00971062
C       -0.74729334      -0.48558892      -0.07407974
C       -2.19912977      -0.52397839       0.19422746
O       -2.91321291      -1.42515456      -0.15964555
H        2.09736749      -0.49027452      -0.75495433
H        2.47861081       0.19010479       0.82925730
H        2.18918485       1.21655276      -0.50083711
H       -0.37834524      -1.29162954      -0.70121861
H        0.68088965      -0.52435890       0.70509043
H       -2.61675380       0.36495569       0.70388064
12
Frame=11 idx=001406 GeodesicLength=1.14155314422305 rxn_smarts="[C:1]([C:2](=[O:3])[C:4]([C:5](=[O:6])[H:12])([H:10])[H:11])([H:7])([H:8])[H:9]>>[C:1]([H:7])([H:8])([H:9])[H:11].[C:2](=[O:3])=[C:4]([C:5](=[O:6])[H:12])[H:10]"
C        1.83730810       0.29700751      -0.03021391
C       -0.11938613       0.76849231      -0.25082409
O       -0.33762064       1.91385041      -0.05407532
C       -0.74717483      -0.48700593      -0.06173004
C       -2.20048368      -0.52478493       0.20538972
O       -2.91583861      -1.42399700      -0.14989149
H        2.09522484      -0.44189467      -0.79589850
H        2.50356486       0.12697910       0.81496642
H        2.20443479       1.24393669      -0.42977497
H       -0.38397493      -1.30023685      -0.68365523
H        0.68344934      -0.54156592       0.73052485
H       -2.61950311       0.36921928       0.70518255
12
Frame=12 idx=001406 GeodesicLength=1.2448182217499535 rxn_smarts="[C:1]([C:2](=[O:3])[C:4]([C:5](=[O:6])[H:12])([H:10])[H:11])([H:7])([H:8])[H:9]>>[C:1]([H:7])([H:8])([H:9])[H:11].[C:2](=[O:3])=[C:4]([C:5](=[O:6])[H:12])[H:10]"
C        1.84354640       0.29862769      -0.01944995
C       -0.13549759       0.76978634      -0.29306338
O       -0.35584666       1.91735417      -0.12006188
C       -0.74652004      -0.48751557      -0.05010638
C       -2.20126822      -0.52464492       0.21694222
O       -2.91809884      -1.42243088      -0.13803306
H        2.09450201      -0.38843598      -0.83445009
H        2.52845283       0.06372229       0.79541655
H        2.21567293       1.26905450      -0.35332069
H       -0.38968129      -1.30861650      -0.66625251
H        0.68610971      -0.56180554       0.75621264
H       -2.62137123       0.37490441       0.70616654
12
Frame=13 idx=001406 GeodesicLength=1.3472677969232065 rxn_smarts="[C:1]([C:2](=[O:3])[C:4]([C:5](=[O:6])[H:12])([H:10])[H:11])([H:7])([H:8])[H:9]>>[C:1]([H:7])([H:8])([H:9])[H:11].[C:2](=[O:3])=[C:4]([C:5](=[O:6])[H:12])[H:10]"
C        1.84905225       0.29934330      -0.00771940
C       -0.15169990       0.76944135      -0.33870242
O       -0.37273386       1.91876275      -0.18843904
C       -0.74514619      -0.48702859      -0.03970402
C       -2.20089137      -0.52323695       0.22887989
O       -2.91960017      -1.42017643      -0.12338009
H        2.09518650      -0.32970433      -0.86992488
H        2.55205718       0.00197086       0.77124309
H        2.22186293       1.29097814      -0.27123394
H       -0.39603935      -1.31658795      -0.64976132
H        0.68904639      -0.58588821       0.78139753
H       -2.62109441       0.38212607       0.70734460
12
Frame=14 idx=001406 GeodesicLength=1.4498625161907617 rxn_smarts="[C:1]([C:2](=[O:3])[C:4]([C:5](=[O:6])[H:12])([H:10])[H:11])([H:7])([H:8])[H:9]>>[C:1]([H:7])([H:8])([H:9])[H:11].[C:2](=[O:3])=[C:4]([C:5](=[O:6])[H:12])[H:10]"
C        1.85403714       0.29917049       0.00485788
C       -0.16809396       0.76739245      -0.38775417
O       -0.38839392       1.91821266      -0.25893136
C       -0.74300825      -0.48564505      -0.03072816
C       -2.19954127      -0.52052204       0.24158629
O       -2.92092187      -1.41671815      -0.10607502
H        2.09816560      -0.26648324      -0.90103503
H        2.57479814      -0.05630913       0.74293882
H        2.22250113       1.30927478      -0.18460320
H       -0.40306419      -1.32409741      -0.63477979
H        0.69244730      -0.61527743       0.80527302
H       -2.61892585       0.39100207       0.70925072
12
Frame=15 idx=001406 GeodesicLength=1.5523150913499462 rxn_smarts="[C:1]([C:2](=[O:3])[C:4]([C:5](=[O:6])[H:12])([H:10])[H:11])([H:7])([H:8])[H:9]>>[C:1]([H:7])([H:8])([H:9])[H:11].[C:2](=[O:3])=[C:4]([C:5](=[O:6])[H:12])[H:10]"
C        1.85817475       0.29814770       0.01830766
C       -0.18466985       0.76318556      -0.44076416
O       -0.40262562       1.91528284      -0.33226127
C       -0.73993445      -0.48344265      -0.02366385
C       -2.19677212      -0.51618237       0.25537256
O       -2.92205498      -1.41149128      -0.08534189
H        2.10358414      -0.19853877      -0.92704864
H        2.59628393      -0.10952725       0.71172820
H        2.21651873       1.32340080      -0.09323448
H       -0.41134943      -1.33116337      -0.62206950
H        0.69664365      -0.65151299       0.82645034
H       -2.61379875       0.40184178       0.71252503
12
Frame=16 idx=001406 GeodesicLength=1.6546896740845976 rxn_smarts="[C:1]([C:2](=[O:3])[C:4]([C:5](=[O:6])[H:12])([H:10])[H:11])([H:7])([H:8])[H:9]>>[C:1]([H:7])([H:8])([H:9])[H:11].[C:2](=[O:3])=[C:4]([C:5](=[O:6])[H:12])[H:10]"
C        1.86113786       0.29651629       0.03283799
C       -0.20144111       0.75655169      -0.49807460
O       -0.41537835       1.90985656      -0.40888694
C       -0.73570546      -0.48060477      -0.01902438
C       -2.19215293      -0.50994923       0.27062725
O       -2.92304882      -1.40380193      -0.06073481
H        2.11150108      -0.12634255      -0.94678761
H        2.61651856      -0.15584776       0.67917919
H        2.20277949       1.33302657       0.00205941
H       -0.42131880      -1.33792933      -0.61259433
H        0.70186227      -0.69646409       0.84333003
H       -2.60475378       0.41498853       0.71806881
