10
Frame=0 idx=007266 GeodesicLength=0.0 rxn_smarts="[N:1]#[C:2][c:3]1[n:4][c:5]([H:8])[c:6]([H:9])[n:7]1[H:10]>>[N:1]#[C:2][C@@:6]1([H:9])[C:5]([H:8])=[N+:4]=[C-:3][N:7]1[H:10]"
N        1.98416157      -0.11050862      -1.51063222
C        1.17409598      -0.09461133      -0.67776248
C        0.65388092      -0.34971429       0.94808998
N       -0.33527620      -1.36126370       0.93787195
C       -1.04371451      -0.88325551      -0.01924957
C       -0.40959238       0.43939996      -0.28174344
N       -0.07449020       0.86386238       1.09846428
H       -1.86678461      -1.37268315      -0.52548831
H       -0.63823041       1.20615085      -1.01126964
H        0.55594984       1.66262340       1.04171946
10
Frame=1 idx=007266 GeodesicLength=0.08785881660936888 rxn_smarts="[N:1]#[C:2][c:3]1[n:4][c:5]([H:8])[c:6]([H:9])[n:7]1[H:10]>>[N:1]#[C:2][C@@:6]1([H:9])[C:5]([H:8])=[N+:4]=[C-:3][N:7]1[H:10]"
N        2.01001063      -0.10905444      -1.50613375
C        1.19021854      -0.09568268      -0.68371410
C        0.65565274      -0.35560179       0.95664216
N       -0.33634979      -1.36219247       0.93629107
C       -1.05094256      -0.87844563      -0.01641444
C       -0.41780092       0.43967503      -0.28649098
N       -0.06617177       0.85864380       1.08653360
H       -1.87459890      -1.36837609      -0.52079028
H       -0.66678308       1.20823992      -1.00702926
H        0.55676510       1.66279435       1.04110597
10
Frame=2 idx=007266 GeodesicLength=0.17568297690324458 rxn_smarts="[N:1]#[C:2][c:3]1[n:4][c:5]([H:8])[c:6]([H:9])[n:7]1[H:10]>>[N:1]#[C:2][C@@:6]1([H:9])[C:5]([H:8])=[N+:4]=[C-:3][N:7]1[H:10]"
N        2.03637574      -0.10789939      -1.50135584
C        1.20671503      -0.09692190      -0.68979994
C        0.65734106      -0.36146017       0.96530472
N       -0.33741815      -1.36303101       0.93455949
C       -1.05822314      -0.87352505      -0.01358403
C       -0.42619065       0.44006109      -0.29144698
N       -0.05756751       0.85340371       1.07411694
H       -1.88235409      -1.36409669      -0.51614330
H       -0.69622652       1.21052833      -1.00195857
H        0.55754823       1.66294109       1.04030750
10
Frame=3 idx=007266 GeodesicLength=0.2635083816219796 rxn_smarts="[N:1]#[C:2][c:3]1[n:4][c:5]([H:8])[c:6]([H:9])[n:7]1[H:10]>>[N:1]#[C:2][C@@:6]1([H:9])[C:5]([H:8])=[N+:4]=[C-:3][N:7]1[H:10]"
N        2.06329597      -0.10708339      -1.49629184
C        1.22361580      -0.09834074      -0.69603277
C        0.65894004      -0.36727484       0.97408265
N       -0.33847343      -1.36377477       0.93266935
C       -1.06555387      -0.86848833      -0.01076632
C       -0.43477392       0.44057196      -0.29662950
N       -0.04866969       0.84814079       1.06117498
H       -1.89004802      -1.35984470      -0.51155277
H       -0.72660656       1.21302469      -0.99596872
H        0.55827367       1.66306932       1.03931492
10
Frame=4 idx=007266 GeodesicLength=0.3513261474188658 rxn_smarts="[N:1]#[C:2][c:3]1[n:4][c:5]([H:8])[c:6]([H:9])[n:7]1[H:10]>>[N:1]#[C:2][C@@:6]1([H:9])[C:5]([H:8])=[N+:4]=[C-:3][N:7]1[H:10]"
N        2.09079458      -0.10664500      -1.49092437
C        1.24094559      -0.09995702      -0.70241879
C        0.66044004      -0.37302249       0.98297687
N       -0.33950512      -1.36441115       0.93060306
C       -1.07292630      -0.86332898      -0.00797534
C       -0.44355909       0.44121878      -0.30205845
N       -0.03946354       0.84285278       1.04766085
H       -1.89767488      -1.35561745      -0.50702466
H       -0.75796417       1.21572657      -0.98895625
H        0.55891289       1.66318395       1.03811708
10
Frame=5 idx=007266 GeodesicLength=0.43913667833886016 rxn_smarts="[N:1]#[C:2][c:3]1[n:4][c:5]([H:8])[c:6]([H:9])[n:7]1[H:10]>>[N:1]#[C:2][C@@:6]1([H:9])[C:5]([H:8])=[N+:4]=[C-:3][N:7]1[H:10]"
N        2.11889753      -0.10662651      -1.48523893
C        1.25873257      -0.10178884      -0.70896574
C        0.66183057      -0.37867749       0.99198883
N       -0.34050133      -1.36492819       0.92834318
C       -1.08033172      -0.85804095      -0.00522622
C       -0.45255774       0.44201564      -0.30775545
N       -0.02993436       0.83753715       1.03352394
H       -1.90523013      -1.35141220      -0.50256411
H       -0.79033514       1.21863031      -0.98080959
H        0.55942974       1.66329107       1.03670409
10
Frame=6 idx=007266 GeodesicLength=0.5269500287660687 rxn_smarts="[N:1]#[C:2][c:3]1[n:4][c:5]([H:8])[c:6]([H:9])[n:7]1[H:10]>>[N:1]#[C:2][C@@:6]1([H:9])[C:5]([H:8])=[N+:4]=[C-:3][N:7]1[H:10]"
N        2.14762953      -0.10707914      -1.47922816
C        1.27700724      -0.10385413      -0.71568339
C        0.66310001      -0.38421111       1.00112181
N       -0.34144806      -1.36531379       0.92587340
C       -1.08776105      -0.85261740      -0.00253448
C       -0.46178623       0.44298114      -0.31374228
N       -0.02006744       0.83219233       1.01871194
H       -1.91270525      -1.34722801      -0.49818003
H       -0.82374681       1.22173097      -0.97140972
H        0.55977807       1.66339913       1.03507092
10
Frame=7 idx=007266 GeodesicLength=0.6148034797303582 rxn_smarts="[N:1]#[C:2][c:3]1[n:4][c:5]([H:8])[c:6]([H:9])[n:7]1[H:10]>>[N:1]#[C:2][C@@:6]1([H:9])[C:5]([H:8])=[N+:4]=[C-:3][N:7]1[H:10]"
N        2.17702644      -0.10805762      -1.47289521
C        1.29580537      -0.10617806      -0.72259131
C        0.66423415      -0.38959733       1.01038428
N       -0.34232838      -1.36556631       0.92318209
C       -1.09520287      -0.84705596       0.00008300
C       -0.47126545       0.44414098      -0.32004451
N       -0.00985141       0.82681941       1.00317248
H       -1.92009676      -1.34306344      -0.49387444
H       -0.85821594       1.22503250      -0.96063621
H        0.55989485       1.66352583       1.03321983
10
Frame=8 idx=007266 GeodesicLength=0.7025427920400429 rxn_smarts="[N:1]#[C:2][c:3]1[n:4][c:5]([H:8])[c:6]([H:9])[n:7]1[H:10]>>[N:1]#[C:2][C@@:6]1([H:9])[C:5]([H:8])=[N+:4]=[C-:3][N:7]1[H:10]"
N        2.20707828      -0.10958191      -1.46615082
C        1.31510623      -0.10873353      -0.72969413
C        0.66522050      -0.39476795       1.01973479
N       -0.34312081      -1.36563006       0.92019727
C       -1.10265668      -0.84133933       0.00260866
C       -0.48103217       0.44549342      -0.32664486
N        0.00075674       0.82140371       0.98681433
H       -1.92741334      -1.33890999      -0.48963831
H       -0.89369361       1.22843183      -0.94835494
H        0.55975486       1.66363382       1.03112800
10
Frame=9 idx=007266 GeodesicLength=0.7902509175297165 rxn_smarts="[N:1]#[C:2][c:3]1[n:4][c:5]([H:8])[c:6]([H:9])[n:7]1[H:10]>>[N:1]#[C:2][C@@:6]1([H:9])[C:5]([H:8])=[N+:4]=[C-:3][N:7]1[H:10]"
N        2.23780642      -0.11173427      -1.45904395
C        1.33499125      -0.11157651      -0.73698406
C        0.66604096      -0.39969059       1.02919832
N       -0.34380697      -1.36550620       0.91692375
C       -1.11008255      -0.83547899       0.00499696
C       -0.49108976       0.44707716      -0.33361252
N        0.01176619       0.81594252       0.96957422
H       -1.93465720      -1.33475848      -0.48546761
H       -0.93020658       1.23196333      -0.93439833
H        0.55923825       1.66376202       1.02881321
10
Frame=10 idx=007266 GeodesicLength=0.8779997228630472 rxn_smarts="[N:1]#[C:2][c:3]1[n:4][c:5]([H:8])[c:6]([H:9])[n:7]1[H:10]>>[N:1]#[C:2][C@@:6]1([H:9])[C:5]([H:8])=[N+:4]=[C-:3][N:7]1[H:10]"
N        2.26927368      -0.11458214      -1.45157083
C        1.35548222      -0.11470033      -0.74451844
C        0.66668247      -0.40432660       1.03877178
N       -0.34434984      -1.36519763       0.91333736
C       -1.11748083      -0.82947136       0.00724208
C       -0.50150324       0.44892928      -0.34094051
N        0.02319005       0.81043384       0.95138847
H       -1.94184321      -1.33060634      -0.48134005
H       -0.96769026       1.23560874      -0.91867130
H        0.55823895       1.66391254       1.02630144
10
Frame=11 idx=007266 GeodesicLength=0.9657465926390242 rxn_smarts="[N:1]#[C:2][c:3]1[n:4][c:5]([H:8])[c:6]([H:9])[n:7]1[H:10]>>[N:1]#[C:2][C@@:6]1([H:9])[C:5]([H:8])=[N+:4]=[C-:3][N:7]1[H:10]"
N        2.30146877      -0.11819182      -1.44371896
C        1.37659136      -0.11811319      -0.75231496
C        0.66712748      -0.40860879       1.04844325
N       -0.34471361      -1.36467380       0.90939761
C       -1.12483385      -0.82331036       0.00932138
C       -0.51231981       0.45108110      -0.34862805
N        0.03506444       0.80487006       0.93217278
H       -1.94896729      -1.32644796      -0.47724978
H       -1.00605502       1.23931648      -0.90104309
H        0.55663753       1.66407827       1.02361984
10
Frame=12 idx=007266 GeodesicLength=1.053490887173372 rxn_smarts="[N:1]#[C:2][c:3]1[n:4][c:5]([H:8])[c:6]([H:9])[n:7]1[H:10]>>[N:1]#[C:2][C@@:6]1([H:9])[C:5]([H:8])=[N+:4]=[C-:3][N:7]1[H:10]"
N        2.33438515      -0.12264730      -1.43550358
C        1.39834168      -0.12181460      -0.76039867
C        0.66735791      -0.41246726       1.05820584
N       -0.34486094      -1.36391145       0.90507569
C       -1.13212890      -0.81699440       0.01121960
C       -0.52360003       0.45357243      -0.35666703
N        0.04742325       0.79924472       0.91183846
H       -1.95602326      -1.32229175      -0.47318965
H       -1.04517757       1.24305773      -0.88139823
H        0.55428270       1.66425188       1.02081757
10
Frame=13 idx=007266 GeodesicLength=1.1412311050571295 rxn_smarts="[N:1]#[C:2][c:3]1[n:4][c:5]([H:8])[c:6]([H:9])[n:7]1[H:10]>>[N:1]#[C:2][C@@:6]1([H:9])[C:5]([H:8])=[N+:4]=[C-:3][N:7]1[H:10]"
N        2.36801188      -0.12803876      -1.42694973
C        1.42075456      -0.12580665      -0.76880305
C        0.66735462      -0.41582300       1.06805087
N       -0.34474488      -1.36288388       0.90034048
C       -1.13934893      -0.81052016       0.01292470
C       -0.53541010       0.45644716      -0.36503673
N        0.06030588       0.79354967       0.89029083
H       -1.96300447      -1.31813870      -0.46914224
H       -1.08490019       1.24680097      -0.85964059
H        0.55098163       1.66441335       1.01796546
10
Frame=14 idx=007266 GeodesicLength=1.2289700955407825 rxn_smarts="[N:1]#[C:2][c:3]1[n:4][c:5]([H:8])[c:6]([H:9])[n:7]1[H:10]>>[N:1]#[C:2][C@@:6]1([H:9])[C:5]([H:8])=[N+:4]=[C-:3][N:7]1[H:10]"
N        2.40233399      -0.13447188      -1.41809612
C        1.44385456      -0.13009002      -0.77756735
C        0.66710160      -0.41858610       1.07796952
N       -0.34430915      -1.36156322       0.89516216
C       -1.14647649      -0.80388438       0.01442967
C       -0.54782178       0.45975509      -0.37370307
N        0.07376200       0.78777824       0.86742716
H       -1.96990369      -1.31399124      -0.46508709
H       -1.12503829       1.25052318      -0.83569583
H        0.54649726       1.66453034       1.01516094
10
Frame=15 idx=007266 GeodesicLength=1.3167103955782138 rxn_smarts="[N:1]#[C:2][c:3]1[n:4][c:5]([H:8])[c:6]([H:9])[n:7]1[H:10]>>[N:1]#[C:2][C@@:6]1([H:9])[C:5]([H:8])=[N+:4]=[C-:3][N:7]1[H:10]"
N        2.43733916      -0.14206366      -1.40899162
C        1.46767252      -0.13467033      -0.78673860
C        0.66658212      -0.42065096       1.08794798
N       -0.34349018      -1.35991313       0.88951246
C       -1.15349027      -0.79708128       0.01573191
C       -0.56090660       0.46354861      -0.38262132
N        0.08785202       0.78192418       0.84312782
H       -1.97671177      -1.30984825      -0.46099330
H       -1.16538458       1.25421099      -0.80950047
H        0.54053758       1.66454382       1.01252513
10
Frame=16 idx=007266 GeodesicLength=1.4044538011679275 rxn_smarts="[N:1]#[C:2][c:3]1[n:4][c:5]([H:8])[c:6]([H:9])[n:7]1[H:10]>>[N:1]#[C:2][C@@:6]1([H:9])[C:5]([H:8])=[N+:4]=[C-:3][N:7]1[H:10]"
N        2.47301588      -0.15095708      -1.39970242
C        1.49224980      -0.13955656      -0.79637095
C        0.66577855      -0.42189003       1.09796674
N       -0.34221471      -1.35788385       0.88336620
C       -1.16036094      -0.79009907       0.01683274
C       -0.57473050       0.46788491      -0.39173502
N        0.10264842       0.77598475       0.81725550
H       -1.98340942      -1.30570251      -0.45682341
H       -1.20571454       1.25786228      -0.78099696
H        0.53273747       1.66435717       1.01020759
