14
Frame=0 idx=004406 GeodesicLength=0.0 rxn_smarts="[C:1]([C@@:2]([C:3]([O:4][H:13])([H:11])[H:12])([C:5]#[C:6][H:14])[H:10])([H:7])([H:8])[H:9]>>[C:1]([C@:2]([C:3](=[O:4])[H:11])([C:5]#[C:6][H:14])[H:12])([H:7])([H:8])[H:9].[H:10][H:13]"
C       -0.34938675      -1.46094949       0.69852161
C       -0.04592494      -0.12246221       0.11370279
C       -1.06351182       0.94878689       0.10604541
O       -0.90287908       1.93342600      -0.73074215
C        1.31958313       0.22276791      -0.03071175
C        2.48621520       0.48992321      -0.11789270
H        0.28851535      -1.67625076       1.55741584
H       -0.13724523      -2.22279839      -0.05498227
H       -1.40020893      -1.53664336       0.97608288
H       -0.32241139       0.06821978      -1.87191308
H       -2.07262277       0.50224322       0.20208752
H       -0.78156502       1.23765982       1.17105422
H       -0.53395452       0.86934268      -1.80556967
H        3.51539677       0.74673474      -0.21309861
14
Frame=1 idx=004406 GeodesicLength=0.09576078108637436 rxn_smarts="[C:1]([C@@:2]([C:3]([O:4][H:13])([H:11])[H:12])([C:5]#[C:6][H:14])[H:10])([H:7])([H:8])[H:9]>>[C:1]([C@:2]([C:3](=[O:4])[H:11])([C:5]#[C:6][H:14])[H:12])([H:7])([H:8])[H:9].[H:10][H:13]"
C       -0.35664020      -1.46061953       0.69772586
C       -0.04849314      -0.11870649       0.11976864
C       -1.06952275       0.95225735       0.10625782
O       -0.90657722       1.92759214      -0.74030297
C        1.32028419       0.22712934      -0.01512909
C        2.48418352       0.49941673      -0.11845720
H        0.26800526      -1.67238413       1.56713659
H       -0.12997038      -2.22043920      -0.05335137
H       -1.41070104      -1.54268275       0.96126584
H       -0.30322015       0.05715807      -1.86307705
H       -2.08014652       0.51208821       0.20801267
H       -0.75475330       1.20949446       1.18518243
H       -0.52337461       0.87547175      -1.81378229
H        3.51092636       0.75422406      -0.24124988
14
Frame=2 idx=004406 GeodesicLength=0.1913767909683244 rxn_smarts="[C:1]([C@@:2]([C:3]([O:4][H:13])([H:11])[H:12])([C:5]#[C:6][H:14])[H:10])([H:7])([H:8])[H:9]>>[C:1]([C@:2]([C:3](=[O:4])[H:11])([C:5]#[C:6][H:14])[H:12])([H:7])([H:8])[H:9].[H:10][H:13]"
C       -0.36351617      -1.46016019       0.69678420
C       -0.05083827      -0.11486626       0.12559878
C       -1.07500068       0.95616899       0.10696039
O       -0.91039228       1.92155926      -0.75009749
C        1.32113429       0.23154132      -0.00024205
C        2.48206760       0.50948319      -0.11870499
H        0.24801617      -1.66852742       1.57624149
H       -0.12273208      -2.21795306      -0.05170364
H       -1.42053099      -1.54836999       0.94660013
H       -0.28481889       0.04564919      -1.85399612
H       -2.08712928       0.52230312       0.21403122
H       -0.72923615       1.18105484       1.19905653
H       -0.51318682       0.88160467      -1.82212371
H        3.50616356       0.76051233      -0.26840473
14
Frame=3 idx=004406 GeodesicLength=0.2868883151074896 rxn_smarts="[C:1]([C@@:2]([C:3]([O:4][H:13])([H:11])[H:12])([C:5]#[C:6][H:14])[H:10])([H:7])([H:8])[H:9]>>[C:1]([C@:2]([C:3](=[O:4])[H:11])([C:5]#[C:6][H:14])[H:12])([H:7])([H:8])[H:9].[H:10][H:13]"
C       -0.37056325      -1.45983810       0.69574003
C       -0.05291538      -0.11137663       0.13115882
C       -1.07940020       0.96056787       0.10814593
O       -0.91343846       1.91526149      -0.76013718
C        1.32233553       0.23492399       0.01379129
C        2.48024307       0.51845223      -0.11873449
H        0.22799920      -1.66519951       1.58473814
H       -0.11650044      -2.21575574      -0.05000630
H       -1.43028667      -1.55345861       0.93223443
H       -0.26724562       0.03328536      -1.84471168
H       -2.09321486       0.53345040       0.22040338
H       -0.70408901       1.15230310       1.21271646
H       -0.50298691       0.88752612      -1.83065582
H        3.50006302       0.76985803      -0.29468302
14
Frame=4 idx=004406 GeodesicLength=0.3823864562736619 rxn_smarts="[C:1]([C@@:2]([C:3]([O:4][H:13])([H:11])[H:12])([C:5]#[C:6][H:14])[H:10])([H:7])([H:8])[H:9]>>[C:1]([C@:2]([C:3](=[O:4])[H:11])([C:5]#[C:6][H:14])[H:12])([H:7])([H:8])[H:9].[H:10][H:13]"
C       -0.37702706      -1.45928779       0.69452005
C       -0.05484214      -0.10761498       0.13649246
C       -1.08362248       0.96532445       0.10969071
O       -0.91719830       1.90873247      -0.77041951
C        1.32354722       0.23891303       0.02729251
C        2.47821434       0.52875323      -0.11805458
H        0.20871326      -1.66162839       1.59266946
H       -0.10982646      -2.21327650      -0.04834054
H       -1.43921221      -1.55836534       0.91790368
H       -0.25033561       0.02059386      -1.83523501
H       -2.09900334       0.54468794       0.22695112
H       -0.68038986       1.12335035       1.22617813
H       -0.49318189       0.89372200      -1.83940103
H        3.49416453       0.77609566      -0.32024745
14
Frame=5 idx=004406 GeodesicLength=0.47796743042447226 rxn_smarts="[C:1]([C@@:2]([C:3]([O:4][H:13])([H:11])[H:12])([C:5]#[C:6][H:14])[H:10])([H:7])([H:8])[H:9]>>[C:1]([C@:2]([C:3](=[O:4])[H:11])([C:5]#[C:6][H:14])[H:12])([H:7])([H:8])[H:9].[H:10][H:13]"
C       -0.38307548      -1.45859502       0.69314183
C       -0.05662804      -0.10372656       0.14155545
C       -1.08753112       0.97043201       0.11155479
O       -0.92147935       1.90192654      -0.78095834
C        1.32480514       0.24316840       0.04013431
C        2.47607079       0.53980739      -0.11704413
H        0.19003131      -1.65796692       1.60002783
H       -0.10303618      -2.21065787      -0.04669574
H       -1.44748289      -1.56301333       0.90370655
H       -0.23414974       0.00741102      -1.82561073
H       -2.10440620       0.55618769       0.23386242
H       -0.65770229       1.09423862       1.23942857
H       -0.48367137       0.90019095      -1.84842322
H        3.48825541       0.78059709      -0.34467959
14
Frame=6 idx=004406 GeodesicLength=0.5735581734715105 rxn_smarts="[C:1]([C@@:2]([C:3]([O:4][H:13])([H:11])[H:12])([C:5]#[C:6][H:14])[H:10])([H:7])([H:8])[H:9]>>[C:1]([C@:2]([C:3](=[O:4])[H:11])([C:5]#[C:6][H:14])[H:12])([H:7])([H:8])[H:9].[H:10][H:13]"
C       -0.38955070      -1.45814490       0.69171107
C       -0.05818190      -0.10036401       0.14634065
C       -1.09026022       0.97597824       0.11375683
O       -0.92488284       1.89475156      -0.79177160
C        1.32644662       0.24602220       0.05212871
C        2.47438354       0.54903644      -0.11596953
H        0.17108811      -1.65497029       1.60687208
H       -0.09760919      -2.20853515      -0.04497022
H       -1.45600735      -1.56699352       0.88989011
H       -0.21872674      -0.00689493      -1.81585008
H       -2.10883309       0.56881344       0.24141581
H       -0.63479741       1.06484662       1.25244544
H       -0.47377029       0.90655623      -1.85776770
H        3.48070145       0.78989807      -0.36823159
14
Frame=7 idx=004406 GeodesicLength=0.6693100392877578 rxn_smarts="[C:1]([C@@:2]([C:3]([O:4][H:13])([H:11])[H:12])([C:5]#[C:6][H:14])[H:10])([H:7])([H:8])[H:9]>>[C:1]([C@:2]([C:3](=[O:4])[H:11])([C:5]#[C:6][H:14])[H:12])([H:7])([H:8])[H:9].[H:10][H:13]"
C       -0.39555452      -1.45753056       0.69013434
C       -0.05965705      -0.09681482       0.15087413
C       -1.09287393       0.98179398       0.11618455
O       -0.92913779       1.88725605      -0.80281110
C        1.32804922       0.24936197       0.06356831
C        2.47250286       0.55924028      -0.11467324
H        0.15281082      -1.65178826       1.61320619
H       -0.09187647      -2.20623563      -0.04326187
H       -1.46384910      -1.57081169       0.87617955
H       -0.20393819      -0.02166352      -1.80595234
H       -2.11300450       0.58155659       0.24941842
H       -0.61287633       1.03534967       1.26521653
H       -0.46400771       0.91349558      -1.86742490
H        3.47341268       0.79679036      -0.39065857
14
Frame=8 idx=004406 GeodesicLength=0.7651055316568014 rxn_smarts="[C:1]([C@@:2]([C:3]([O:4][H:13])([H:11])[H:12])([C:5]#[C:6][H:14])[H:10])([H:7])([H:8])[H:9]>>[C:1]([C@:2]([C:3](=[O:4])[H:11])([C:5]#[C:6][H:14])[H:12])([H:7])([H:8])[H:9].[H:10][H:13]"
C       -0.40158962      -1.45697807       0.68848652
C       -0.06100395      -0.09346476       0.15515991
C       -1.09487664       0.98791637       0.11882449
O       -0.93344970       1.87936132      -0.81409963
C        1.32980832       0.25220242       0.07435318
C        2.47077085       0.56889308      -0.11327463
H        0.13468555      -1.64885651       1.61908223
H       -0.08671675      -2.20414071      -0.04149851
H       -1.47155722      -1.57422612       0.86273890
H       -0.18978530      -0.03727009      -1.79592380
H       -2.11657573       0.59491818       0.25804005
H       -0.59120384       1.00568844       1.27770088
H       -0.45392762       0.92081623      -1.87742611
H        3.46542162       0.80514021      -0.41216347
14
Frame=9 idx=004406 GeodesicLength=0.8608266869927353 rxn_smarts="[C:1]([C@@:2]([C:3]([O:4][H:13])([H:11])[H:12])([C:5]#[C:6][H:14])[H:10])([H:7])([H:8])[H:9]>>[C:1]([C@:2]([C:3](=[O:4])[H:11])([C:5]#[C:6][H:14])[H:12])([H:7])([H:8])[H:9].[H:10][H:13]"
C       -0.40745940      -1.45640257       0.68676858
C       -0.06228281      -0.09014159       0.15923849
C       -1.09655396       0.99428233       0.12164127
O       -0.93829998       1.87100889      -0.82564150
C        1.33160360       0.25497735       0.08455461
C        2.46901920       0.57860869      -0.11180231
H        0.11693302      -1.64600143       1.62452867
H       -0.08175799      -2.20208577      -0.03970185
H       -1.47892687      -1.57737452       0.84955274
H       -0.17622685      -0.05349690      -1.78575512
H       -2.11972971       0.60860894       0.26722225
H       -0.57000415       0.97593093       1.28983778
H       -0.44353245       0.92880539      -1.88775146
H        3.45721836       0.81328026      -0.43269215
14
Frame=10 idx=004406 GeodesicLength=0.9566359394683768 rxn_smarts="[C:1]([C@@:2]([C:3]([O:4][H:13])([H:11])[H:12])([C:5]#[C:6][H:14])[H:10])([H:7])([H:8])[H:9]>>[C:1]([C@:2]([C:3](=[O:4])[H:11])([C:5]#[C:6][H:14])[H:12])([H:7])([H:8])[H:9].[H:10][H:13]"
C       -0.41330077      -1.45586493       0.68500953
C       -0.06349698      -0.08695498       0.16309932
C       -1.09783233       1.00085760       0.12455824
O       -0.94354370       1.86216544      -0.83743102
C        1.33346855       0.25746241       0.09419727
C        2.46732659       0.58802493      -0.11028611
H        0.09940871      -1.64330048       1.62958799
H       -0.07719769      -2.20019315      -0.03783110
H       -1.48612299      -1.58021366       0.83664841
H       -0.16320283      -0.07050412      -1.77545311
H       -2.12241357       0.62275121       0.27705746
H       -0.54905370       0.94607310       1.30163826
H       -0.43260119       0.93754674      -1.89841235
H        3.44856189       0.82214987      -0.45238280
14
Frame=11 idx=004406 GeodesicLength=1.0525311469870784 rxn_smarts="[C:1]([C@@:2]([C:3]([O:4][H:13])([H:11])[H:12])([C:5]#[C:6][H:14])[H:10])([H:7])([H:8])[H:9]>>[C:1]([C@:2]([C:3](=[O:4])[H:11])([C:5]#[C:6][H:14])[H:12])([H:7])([H:8])[H:9].[H:10][H:13]"
C       -0.41901372      -1.45532625       0.68321872
C       -0.06468994      -0.08382130       0.16676119
C       -1.09889645       1.00758068       0.12751911
O       -0.94946611       1.85278582      -0.84945955
C        1.33532777       0.25989825       0.10334233
C        2.46558552       0.59748084      -0.10878646
H        0.08222420      -1.64065578       1.63429243
H       -0.07283141      -2.19838743      -0.03588514
H       -1.49305079      -1.58283374       0.82402028
H       -0.15066119      -0.08820630      -1.76500979
H       -2.12475073       0.63717962       0.28752776
H       -0.52844494       0.91616396       1.31307844
H       -0.42106043       0.94730227      -1.90938625
H        3.43972822       0.83083935      -0.47123306
14
Frame=12 idx=004406 GeodesicLength=1.1485121887435144 rxn_smarts="[C:1]([C@@:2]([C:3]([O:4][H:13])([H:11])[H:12])([C:5]#[C:6][H:14])[H:10])([H:7])([H:8])[H:9]>>[C:1]([C@:2]([C:3](=[O:4])[H:11])([C:5]#[C:6][H:14])[H:12])([H:7])([H:8])[H:9].[H:10][H:13]"
C       -0.42466854      -1.45481892       0.68143165
C       -0.06587676      -0.08079028       0.17023497
C       -1.09973807       1.01441473       0.13046493
O       -0.95604730       1.84280521      -0.86173931
C        1.33718483       0.26217116       0.11198668
C        2.46382296       0.60678879      -0.10732615
H        0.06532484      -1.63810900       1.63868355
H       -0.06876724      -2.19672730      -0.03383228
H       -1.49979192      -1.58522249       0.81173150
H       -0.13857481      -0.10666747      -1.75442268
H       -2.12672366       0.65191762       0.29864520
H       -0.50804740       0.88620805       1.32412656
H       -0.40870791       0.95824171      -1.92065219
H        3.43061101       0.83978817      -0.48933244
14
Frame=13 idx=004406 GeodesicLength=1.2445183247054699 rxn_smarts="[C:1]([C@@:2]([C:3]([O:4][H:13])([H:11])[H:12])([C:5]#[C:6][H:14])[H:10])([H:7])([H:8])[H:9]>>[C:1]([C@:2]([C:3](=[O:4])[H:11])([C:5]#[C:6][H:14])[H:12])([H:7])([H:8])[H:9].[H:10][H:13]"
C       -0.43032750      -1.45437136       0.67968472
C       -0.06707199      -0.07789972       0.17354847
C       -1.10035706       1.02132723       0.13334581
O       -0.96328271       1.83213924      -0.87430067
C        1.33904187       0.26419037       0.12016217
C        2.46206300       0.61579657      -0.10593809
H        0.04865390      -1.63569879       1.64281112
H       -0.06508746      -2.19525848      -0.03164387
H       -1.50642594      -1.58737888       0.79982817
H       -0.12689498      -0.12591940      -1.74366935
H       -2.12831821       0.66698013       0.31040896
H       -0.48776284       0.85620512       1.33476017
H       -0.39532105       0.97053813      -1.93217947
H        3.42109098       0.84934984      -0.50681813
14
Frame=14 idx=004406 GeodesicLength=1.340538867453002 rxn_smarts="[C:1]([C@@:2]([C:3]([O:4][H:13])([H:11])[H:12])([C:5]#[C:6][H:14])[H:10])([H:7])([H:8])[H:9]>>[C:1]([C@:2]([C:3](=[O:4])[H:11])([C:5]#[C:6][H:14])[H:12])([H:7])([H:8])[H:9].[H:10][H:13]"
C       -0.43601405      -1.45399786       0.67801294
C       -0.06829568      -0.07516643       0.17672069
C       -1.10079431       1.02827369       0.13609994
O       -0.97122477       1.82070038      -0.88716896
C        1.34088485       0.26593139       0.12789139
C        2.46029838       0.62446950      -0.10463594
H        0.03219609      -1.63342677       1.64672176
H       -0.06181184      -2.19400701      -0.02928428
H       -1.51298633      -1.58932009       0.78835270
H       -0.11558291      -0.14599300      -1.73273828
H       -2.12954692       0.68234051       0.32279672
H       -0.46754566       0.82616367       1.34495888
H       -0.38069289       0.98444498      -1.94390833
H        3.41111604       0.85958704      -0.52381922
14
Frame=15 idx=004406 GeodesicLength=1.4365200205344266 rxn_smarts="[C:1]([C@@:2]([C:3]([O:4][H:13])([H:11])[H:12])([C:5]#[C:6][H:14])[H:10])([H:7])([H:8])[H:9]>>[C:1]([C@:2]([C:3](=[O:4])[H:11])([C:5]#[C:6][H:14])[H:12])([H:7])([H:8])[H:9].[H:10][H:13]"
C       -0.44170584      -1.45369420       0.67644331
C       -0.06957463      -0.07257092       0.17976993
C       -1.10113698       1.03521083       0.13867024
O       -0.98001031       1.80837980      -0.90038407
C        1.34267964       0.26745534       0.13518602
C        2.45848163       0.63290135      -0.10344913
H        0.01599278      -1.63126472       1.65045166
H       -0.05889127      -2.19296160      -0.02673068
H       -1.51945481      -1.59108450       0.77734552
H       -0.10460612      -0.16687330      -1.72161558
H       -2.13045681       0.69793045       0.33577883
H       -0.44739920       0.79610110       1.35470008
H       -0.36467468       1.00025415      -1.95577087
H        3.40075660       0.87021623      -0.54039525
14
Frame=16 idx=004406 GeodesicLength=1.5324218589927632 rxn_smarts="[C:1]([C@@:2]([C:3]([O:4][H:13])([H:11])[H:12])([C:5]#[C:6][H:14])[H:10])([H:7])([H:8])[H:9]>>[C:1]([C@:2]([C:3](=[O:4])[H:11])([C:5]#[C:6][H:14])[H:12])([H:7])([H:8])[H:9].[H:10][H:13]"
C       -0.44752727      -1.45351538       0.67503325
C       -0.07090472      -0.07020534       0.18273095
C       -1.10130037       1.04211609       0.14099497
O       -0.98951129       1.79503334      -0.91401644
C        1.34446695       0.26853014       0.14206992
C        2.45669654       0.64075904      -0.10234986
H       -0.00008968      -1.62929041       1.65407218
H       -0.05651298      -2.19222675      -0.02392113
H       -1.52597891      -1.59263255       0.76687055
H       -0.09391192      -0.18867574      -1.71026860
H       -2.13096012       0.71384171       0.34932937
H       -0.42718826       0.76598255       1.36396602
H       -0.34693877       1.01820237      -1.96767819
H        3.38966079       0.88208093      -0.55683300
