21
Frame=0 idx=010325 GeodesicLength=0.0 rxn_smarts="[C:1]([C:2]([C:3]([H:12])([H:13])[H:14])([C:4]([C@@:5]([C:6]([H:18])([H:19])[H:20])([O:7][H:21])[H:17])([H:15])[H:16])[H:11])([H:8])([H:9])[H:10]>>[C:1]([C:2]([C:3]([H:12])([H:13])[H:14])([C:4]([C:5]([C:6]([H:18])([H:19])[H:20])=[O:7])([H:15])[H:16])[H:11])([H:8])([H:9])[H:10].[H:17][H:21]"
C       -1.52348278      -0.77029990      -1.05325807
C       -1.09041837      -0.32595459       0.34163448
C       -2.21349058       0.44659813       1.02731246
C        0.18243312       0.51818613       0.31584630
C        1.46825529      -0.23017794       0.01768748
C        2.70275014       0.63895377      -0.07348689
O        1.61823935      -1.43581066       0.55339782
H       -2.45682379      -1.33422938      -1.00290344
H       -0.78773359      -1.41597470      -1.53614548
H       -1.69231780       0.09186863      -1.70598465
H       -0.86397906      -1.21709615       0.93325861
H       -3.12674668      -0.15002999       1.07292299
H       -2.44809032       1.36734994       0.48412600
H       -1.94231497       0.72092598       2.04914365
H        0.36154965       0.92461888       1.31945619
H        0.07581921       1.37500506      -0.35831589
H        1.28792400      -0.48645594      -1.39079648
H        2.94002992       0.93815950       0.95030910
H        2.54662433       1.53111184      -0.68155730
H        3.54150746       0.06128960      -0.45683414
H        1.42026548      -1.24803829      -0.80581270
21
Frame=1 idx=010325 GeodesicLength=0.10681579832480352 rxn_smarts="[C:1]([C:2]([C:3]([H:12])([H:13])[H:14])([C:4]([C@@:5]([C:6]([H:18])([H:19])[H:20])([O:7][H:21])[H:17])([H:15])[H:16])[H:11])([H:8])([H:9])[H:10]>>[C:1]([C:2]([C:3]([H:12])([H:13])[H:14])([C:4]([C:5]([C:6]([H:18])([H:19])[H:20])=[O:7])([H:15])[H:16])[H:11])([H:8])([H:9])[H:10].[H:17][H:21]"
C       -1.52901575      -0.76501357      -1.05265902
C       -1.09284722      -0.32511068       0.34258775
C       -2.21388000       0.44753364       1.03179852
C        0.18115937       0.51696703       0.31564015
C        1.46677644      -0.22849444       0.00958241
C        2.69963734       0.64526509      -0.06877164
O        1.61614063      -1.43148618       0.54997994
H       -2.46356866      -1.32707644      -1.00313868
H       -0.79418688      -1.41141513      -1.53580354
H       -1.69734997       0.09911199      -1.70295231
H       -0.86759388      -1.21826731       0.93161397
H       -3.12823542      -0.14738028       1.07804451
H       -2.44797583       1.36993742       0.49119120
H       -1.94100045       0.71926775       2.05389438
H        0.35988131       0.92305659       1.31963281
H        0.07309339       1.37614404      -0.35538311
H        1.31531094      -0.51737473      -1.41476310
H        2.92521097       0.95710179       0.95379726
H        2.54685138       1.53105691      -0.68710199
H        3.54606924       0.06945778      -0.43819878
H        1.44552306      -1.28328129      -0.81899073
21
Frame=2 idx=010325 GeodesicLength=0.21342935677212813 rxn_smarts="[C:1]([C:2]([C:3]([H:12])([H:13])[H:14])([C:4]([C@@:5]([C:6]([H:18])([H:19])[H:20])([O:7][H:21])[H:17])([H:15])[H:16])[H:11])([H:8])([H:9])[H:10]>>[C:1]([C:2]([C:3]([H:12])([H:13])[H:14])([C:4]([C:5]([C:6]([H:18])([H:19])[H:20])=[O:7])([H:15])[H:16])[H:11])([H:8])([H:9])[H:10].[H:17][H:21]"
C       -1.53423745      -0.75925134      -1.05217866
C       -1.09539582      -0.32410074       0.34364265
C       -2.21455899       0.44838766       1.03633795
C        0.17972910       0.51600414       0.31602642
C        1.46495854      -0.22656617       0.00129458
C        2.69612240       0.65166881      -0.06476805
O        1.61389997      -1.42689801       0.54639999
H       -2.46992241      -1.31959917      -1.00383106
H       -0.80006840      -1.40605489      -1.53562449
H       -1.70207700       0.10699185      -1.69981039
H       -0.87139543      -1.21940045       0.92988334
H       -3.12998401      -0.14488065       1.08285284
H       -2.44808453       1.37255409       0.49848686
H       -1.94018476       0.71730096       2.05880564
H        0.35820582       0.92114602       1.32060651
H        0.07016220       1.37780990      -0.35148216
H        1.34401811      -0.54991468      -1.43803762
H        2.91038359       0.97626976       0.95615915
H        2.54670795       1.53086673      -0.69344053
H        3.54988597       0.07769347      -0.42034572
H        1.47183513      -1.32002729      -0.83097728
21
Frame=3 idx=010325 GeodesicLength=0.320000617112977 rxn_smarts="[C:1]([C:2]([C:3]([H:12])([H:13])[H:14])([C:4]([C@@:5]([C:6]([H:18])([H:19])[H:20])([O:7][H:21])[H:17])([H:15])[H:16])[H:11])([H:8])([H:9])[H:10]>>[C:1]([C:2]([C:3]([H:12])([H:13])[H:14])([C:4]([C:5]([C:6]([H:18])([H:19])[H:20])=[O:7])([H:15])[H:16])[H:11])([H:8])([H:9])[H:10].[H:17][H:21]"
C       -1.53914597      -0.75299194      -1.05182118
C       -1.09807310      -0.32291270       0.34479926
C       -2.21554429       0.44915611       1.04093742
C        0.17812989       0.51531794       0.31702132
C        1.46277173      -0.22436264      -0.00719326
C        2.69219935       0.65817850      -0.06150893
O        1.61149467      -1.42206303       0.54254007
H       -2.47587787      -1.31178515      -1.00499311
H       -0.80536431      -1.39985599      -1.53561908
H       -1.70650167       0.11553359      -1.69655127
H       -0.87538763      -1.22048665       0.92805547
H       -3.13200536      -0.14254181       1.08734639
H       -2.44843935       1.37519653       0.50602880
H       -1.93988795       0.71501490       2.06388537
H        0.35652333       0.91887151       1.32240374
H        0.06700598       1.38003994      -0.34656370
H        1.37413409      -0.58414974      -1.46050949
H        2.89556904       0.99565244       0.95737078
H        2.54617296       1.53055903      -0.70058289
H        3.55294867       0.08601609      -0.40334743
H        1.49927779      -1.35838694      -0.84169829
21
Frame=4 idx=010325 GeodesicLength=0.42665742950169444 rxn_smarts="[C:1]([C:2]([C:3]([H:12])([H:13])[H:14])([C:4]([C@@:5]([C:6]([H:18])([H:19])[H:20])([O:7][H:21])[H:17])([H:15])[H:16])[H:11])([H:8])([H:9])[H:10]>>[C:1]([C:2]([C:3]([H:12])([H:13])[H:14])([C:4]([C:5]([C:6]([H:18])([H:19])[H:20])=[O:7])([H:15])[H:16])[H:11])([H:8])([H:9])[H:10].[H:17][H:21]"
C       -1.54374313      -0.74621295      -1.05159202
C       -1.10088781      -0.32153337       0.34605537
C       -2.21685112       0.44983455       1.04560410
C        0.17634908       0.51493021       0.31863619
C        1.46018449      -0.22184601      -0.01591187
C        2.68786159       0.66481132      -0.05902904
O        1.60890139      -1.41700241       0.53825077
H       -2.48143265      -1.30361871      -1.00663709
H       -0.81006661      -1.39278097      -1.53579883
H       -1.71063052       0.12476433      -1.69316756
H       -0.87957179      -1.22151656       0.92611443
H       -3.13431081      -0.14037481       1.09152590
H       -2.44906359       1.37786159       0.51383488
H       -1.94012572       0.71239751       2.06914127
H        0.35483916       0.91621053       1.32504698
H        0.06360295       1.38287470      -0.34057736
H        1.40575356      -0.62015400      -1.48202830
H        2.88078195       1.01523840       0.95740992
H        2.54522473       1.53015822      -0.70853829
H        3.55525107       0.09444806      -0.38727532
H        1.52793379      -1.39848964      -0.85106413
21
Frame=5 idx=010325 GeodesicLength=0.5335257419619153 rxn_smarts="[C:1]([C:2]([C:3]([H:12])([H:13])[H:14])([C:4]([C@@:5]([C:6]([H:18])([H:19])[H:20])([O:7][H:21])[H:17])([H:15])[H:16])[H:11])([H:8])([H:9])[H:10]>>[C:1]([C:2]([C:3]([H:12])([H:13])[H:14])([C:4]([C:5]([C:6]([H:18])([H:19])[H:20])=[O:7])([H:15])[H:16])[H:11])([H:8])([H:9])[H:10].[H:17][H:21]"
C       -1.54803406      -0.73889863      -1.05149179
C       -1.10384932      -0.31994948       0.34741010
C       -2.21849388       0.45042298       1.05034412
C        0.17437333       0.51486129       0.32087853
C        1.45716499      -0.21897423      -0.02489316
C        2.68310407       0.67158215      -0.05735528
O        1.60609281      -1.41174970       0.53335610
H       -2.48658755      -1.29508885      -1.00876689
H       -0.81417164      -1.38480617      -1.53616559
H       -1.71447338       0.13470038      -1.68965183
H       -0.88394823      -1.22247778       0.92404962
H       -3.13691083      -0.13838575       1.09539530
H       -2.44998056       1.38054791       0.52191778
H       -1.94091098       0.70944569       2.07457793
H        0.35315879       0.91314010       1.32855296
H        0.05993059       1.38634983      -0.33348158
H        1.43896374      -0.65798257      -1.50245683
H        2.86603948       1.03499963       0.95626854
H        2.54384319       1.52970053      -0.71729566
H        3.55678860       0.10300859      -0.37220269
H        1.55790084      -1.44044590      -0.85898971
21
Frame=6 idx=010325 GeodesicLength=0.6406358582609625 rxn_smarts="[C:1]([C:2]([C:3]([H:12])([H:13])[H:14])([C:4]([C@@:5]([C:6]([H:18])([H:19])[H:20])([O:7][H:21])[H:17])([H:15])[H:16])[H:11])([H:8])([H:9])[H:10]>>[C:1]([C:2]([C:3]([H:12])([H:13])[H:14])([C:4]([C:5]([C:6]([H:18])([H:19])[H:20])=[O:7])([H:15])[H:16])[H:11])([H:8])([H:9])[H:10].[H:17][H:21]"
C       -1.55203725      -0.73103440      -1.05152280
C       -1.10696751      -0.31815034       0.34885570
C       -2.22047952       0.45092109       1.05516599
C        0.17219070       0.51512548       0.32373795
C        1.45368151      -0.21570706      -0.03419375
C        2.67792178       0.67851210      -0.05651116
O        1.60304078      -1.40634051       0.52764960
H       -2.49136032      -1.28617958      -1.01138030
H       -0.81769949      -1.37591235      -1.53672758
H       -1.71805396       0.14535728      -1.68599747
H       -0.88851504      -1.22336060       0.92184132
H       -3.13980933      -0.13657787       1.09896880
H       -2.45120777       1.38325406       0.53029498
H       -1.94224135       0.70615515       2.08019952
H        0.35149479       0.90962532       1.33291722
H        0.05596615       1.39049344      -0.32524589
H        1.47386349      -0.69767690      -1.52162257
H        2.85134528       1.05490589       0.95395122
H        2.54201344       1.52923219      -0.72683945
H        3.55756230       0.11171817      -0.35818764
H        1.58929130      -1.48436055      -0.86535369
21
Frame=7 idx=010325 GeodesicLength=0.7481289048963321 rxn_smarts="[C:1]([C:2]([C:3]([H:12])([H:13])[H:14])([C:4]([C@@:5]([C:6]([H:18])([H:19])[H:20])([O:7][H:21])[H:17])([H:15])[H:16])[H:11])([H:8])([H:9])[H:10]>>[C:1]([C:2]([C:3]([H:12])([H:13])[H:14])([C:4]([C:5]([C:6]([H:18])([H:19])[H:20])=[O:7])([H:15])[H:16])[H:11])([H:8])([H:9])[H:10].[H:17][H:21]"
C       -1.55577201      -0.72261339      -1.05167942
C       -1.11025335      -0.31612212       0.35038995
C       -2.22281802       0.45133488       1.06007675
C        0.16978626       0.51574154       0.32720608
C        1.44970155      -0.21198392      -0.04386192
C        2.67231348       0.68562577      -0.05650892
O        1.59970545      -1.40082490       0.52085883
H       -2.49577027      -1.27687915      -1.01446510
H       -0.82067184      -1.36610047      -1.53747364
H       -1.72139241       0.15673718      -1.68219852
H       -0.89326836      -1.22414785       0.91948171
H       -3.14301245      -0.13494939       1.10226301
H       -2.45276754       1.38598114       0.53897471
H       -1.94411728       0.70253614       2.08600763
H        0.34985782       0.90563442       1.33813626
H        0.05168381       1.39533586      -0.31584622
H        1.51055321      -0.73928064      -1.53936220
H        2.83671324       1.07490845       0.95048312
H        2.53972413       1.52882202      -0.73712521
H        3.55757150       0.12059874      -0.34529477
H        1.62223307      -1.53035428      -0.87006211
21
Frame=8 idx=010325 GeodesicLength=0.8558993342569875 rxn_smarts="[C:1]([C:2]([C:3]([H:12])([H:13])[H:14])([C:4]([C@@:5]([C:6]([H:18])([H:19])[H:20])([O:7][H:21])[H:17])([H:15])[H:16])[H:11])([H:8])([H:9])[H:10]>>[C:1]([C:2]([C:3]([H:12])([H:13])[H:14])([C:4]([C:5]([C:6]([H:18])([H:19])[H:20])=[O:7])([H:15])[H:16])[H:11])([H:8])([H:9])[H:10].[H:17][H:21]"
C       -1.55928090      -0.71362863      -1.05196395
C       -1.11371759      -0.31385893       0.35199664
C       -2.22550378       0.45166624       1.06508715
C        0.16715238       0.51671188       0.33124413
C        1.44519227      -0.20776275      -0.05399221
C        2.66627415       0.69294086      -0.05735949
O        1.59604577      -1.39525027       0.51272501
H       -2.49986450      -1.26717130      -1.01800502
H       -0.82314642      -1.35537415      -1.53841186
H       -1.72453277       0.16884574      -1.67825185
H       -0.89820359      -1.22483354       0.91694308
H       -3.14651469      -0.13349685       1.10530969
H       -2.45466602       1.38872958       0.54797516
H       -1.94650858       0.69858824       2.09200482
H        0.34827748       0.90111958       1.34417054
H        0.04706742       1.40088936      -0.30527722
H        1.54914248      -0.78279485      -1.55548635
H        2.82212902       1.09495142       0.94589657
H        2.53696988       1.52853528      -0.74810807
H        3.55682105       0.12967035      -0.33357015
H        1.65686695      -1.57847726      -0.87292663
21
Frame=9 idx=010325 GeodesicLength=0.9622869914833337 rxn_smarts="[C:1]([C:2]([C:3]([H:12])([H:13])[H:14])([C:4]([C@@:5]([C:6]([H:18])([H:19])[H:20])([O:7][H:21])[H:17])([H:15])[H:16])[H:11])([H:8])([H:9])[H:10]>>[C:1]([C:2]([C:3]([H:12])([H:13])[H:14])([C:4]([C:5]([C:6]([H:18])([H:19])[H:20])=[O:7])([H:15])[H:16])[H:11])([H:8])([H:9])[H:10].[H:17][H:21]"
C       -1.56271016      -0.70409664      -1.05241079
C       -1.11736352      -0.31142443       0.35359328
C       -2.22844104       0.45190476       1.07020009
C        0.16434803       0.51785969       0.33568832
C        1.44013649      -0.20324120      -0.06488676
C        2.65977305       0.70036410      -0.05908412
O        1.59204515      -1.38949995       0.50347788
H       -2.50381519      -1.25700709      -1.02197226
H       -0.82534208      -1.34378424      -1.53963349
H       -1.72761664       0.18167832      -1.67415422
H       -0.90333512      -1.22549208       0.91410387
H       -3.15025211      -0.13216644       1.10817915
H       -2.45679273       1.39150044       0.55733646
H       -1.94922356       0.69426685       2.09816201
H        0.34685598       0.89590022       1.35076080
H        0.04216500       1.40696380      -0.29363318
H        1.58947311      -0.82772437      -1.56976641
H        2.80746059       1.11493478       0.94019361
H        2.53378698       1.52830762      -0.75978502
H        3.55537079       0.13888370      -0.32290575
H        1.69347697      -1.62812784      -0.87346350
21
Frame=10 idx=010325 GeodesicLength=1.0688411823302995 rxn_smarts="[C:1]([C:2]([C:3]([H:12])([H:13])[H:14])([C:4]([C@@:5]([C:6]([H:18])([H:19])[H:20])([O:7][H:21])[H:17])([H:15])[H:16])[H:11])([H:8])([H:9])[H:10]>>[C:1]([C:2]([C:3]([H:12])([H:13])[H:14])([C:4]([C:5]([C:6]([H:18])([H:19])[H:20])=[O:7])([H:15])[H:16])[H:11])([H:8])([H:9])[H:10].[H:17][H:21]"
C       -1.56602800      -0.69397351      -1.05300579
C       -1.12120903      -0.30875820       0.35521194
C       -2.23169650       0.45205142       1.07544160
C        0.16130450       0.51933220       0.34060024
C        1.43448672      -0.19812731      -0.07643682
C        2.65283644       0.70801562      -0.06169470
O        1.58764343      -1.38378679       0.49235579
H       -2.50758158      -1.24636564      -1.02637252
H       -0.82720985      -1.33128609      -1.54109815
H       -1.73061720       0.19527447      -1.66990345
H       -0.90863719      -1.22605981       0.91099670
H       -3.15426285      -0.13100715       1.11087652
H       -2.45925154       1.39428977       0.56708232
H       -1.95235900       0.68958222       2.10451979
H        0.34553938       0.89005498       1.35804526
H        0.03690059       1.41372835      -0.28084711
H        1.63190112      -0.87454693      -1.58202551
H        2.79282996       1.13482812       0.93343712
H        2.53014332       1.52834445      -0.77206987
H        3.55316551       0.14831402      -0.31351664
H        1.73210177      -1.67990420      -0.87159670
21
Frame=11 idx=010325 GeodesicLength=1.1756267938554728 rxn_smarts="[C:1]([C:2]([C:3]([H:12])([H:13])[H:14])([C:4]([C@@:5]([C:6]([H:18])([H:19])[H:20])([O:7][H:21])[H:17])([H:15])[H:16])[H:11])([H:8])([H:9])[H:10]>>[C:1]([C:2]([C:3]([H:12])([H:13])[H:14])([C:4]([C:5]([C:6]([H:18])([H:19])[H:20])=[O:7])([H:15])[H:16])[H:11])([H:8])([H:9])[H:10].[H:17][H:21]"
C       -1.56928935      -0.68323218      -1.05375923
C       -1.12526105      -0.30586489       0.35682479
C       -2.23525062       0.45209326       1.08082770
C        0.15802131       0.52110686       0.34593079
C        1.42821870      -0.19237871      -0.08871087
C        2.64546180       0.71591470      -0.06520623
O        1.58280997      -1.37812371       0.47915392
H       -2.51122914      -1.23519514      -1.03120103
H       -0.82883666      -1.31786814      -1.54283668
H       -1.73358926       0.20966579      -1.66548911
H       -0.91410390      -1.22654724       0.90756537
H       -3.15853028      -0.13002051       1.11343660
H       -2.46203201       1.39709066       0.57725579
H       -1.95586329       0.68449838       2.11108413
H        0.34435175       0.88352389       1.36595553
H        0.03126771       1.42115770      -0.26692849
H        1.67653305      -0.92327429      -1.59209357
H        2.77823180       1.15459875       0.92565702
H        2.52603440       1.52871250      -0.78493529
H        3.55020726       0.15796859      -0.30544659
H        1.77284783      -1.73382628      -0.86708455
21
Frame=12 idx=010325 GeodesicLength=1.2826121027415587 rxn_smarts="[C:1]([C:2]([C:3]([H:12])([H:13])[H:14])([C:4]([C@@:5]([C:6]([H:18])([H:19])[H:20])([O:7][H:21])[H:17])([H:15])[H:16])[H:11])([H:8])([H:9])[H:10]>>[C:1]([C:2]([C:3]([H:12])([H:13])[H:14])([C:4]([C:5]([C:6]([H:18])([H:19])[H:20])=[O:7])([H:15])[H:16])[H:11])([H:8])([H:9])[H:10].[H:17][H:21]"
C       -1.57256881      -0.67183570      -1.05469277
C       -1.12952861      -0.30275271       0.35839292
C       -2.23907612       0.45201025       1.08638152
C        0.15449995       0.52315238       0.35161544
C        1.42130328      -0.18595140      -0.10181349
C        2.63764339       0.72407771      -0.06964533
O        1.57751070      -1.37253573       0.46362875
H       -2.51484585      -1.22342773      -1.03645809
H       -0.83033795      -1.30350988      -1.54490360
H       -1.73660505       0.22490181      -1.66090186
H       -0.91972924      -1.22697443       0.90373360
H       -3.16303254      -0.12921379       1.11590514
H       -2.46511693       1.39989444       0.58791704
H       -1.95966624       0.67896230       2.11786875
H        0.34332523       0.87623652       1.37440812
H        0.02526142       1.42922226      -0.25189141
H        1.72350905      -0.97392018      -1.59974068
H        2.76364981       1.17420458       0.91687749
H        2.52145794       1.52948033      -0.79836653
H        3.54649807       0.16785303      -0.29874553
H        1.81584851      -1.78987408      -0.85956950
21
Frame=13 idx=010325 GeodesicLength=1.3897913361326335 rxn_smarts="[C:1]([C:2]([C:3]([H:12])([H:13])[H:14])([C:4]([C@@:5]([C:6]([H:18])([H:19])[H:20])([O:7][H:21])[H:17])([H:15])[H:16])[H:11])([H:8])([H:9])[H:10]>>[C:1]([C:2]([C:3]([H:12])([H:13])[H:14])([C:4]([C:5]([C:6]([H:18])([H:19])[H:20])=[O:7])([H:15])[H:16])[H:11])([H:8])([H:9])[H:10].[H:17][H:21]"
C       -1.57594448      -0.65973999      -1.05583476
C       -1.13401956      -0.29943473       0.35987331
C       -2.24313988       0.45177537       1.09212857
C        0.15074634       0.52542787       0.35758728
C        1.41370934      -0.17879868      -0.11585484
C        2.62937326       0.73252117      -0.07504568
O        1.57170972      -1.36703938       0.44553568
H       -2.51852589      -1.21098588      -1.04215345
H       -0.83183581      -1.28818468      -1.54736415
H       -1.73973956       0.24104406      -1.65613283
H       -0.92550745      -1.22737046       0.89941275
H       -3.16774351      -0.12859712       1.11832936
H       -2.46848103       1.40269004       0.59913591
H       -1.96368778       0.67290733       2.12489060
H        0.34250023       0.86810481       1.38331271
H        0.01888297       1.43788615      -0.23574774
H        1.77297844      -1.02650899      -1.60473666
H        2.74907300       1.19359818       0.90711693
H        2.51640905       1.53072505      -0.81235045
H        3.54203594       0.17796902      -0.29347989
H        1.86120664      -1.84798915      -0.84862262
21
Frame=14 idx=010325 GeodesicLength=1.497046534022067 rxn_smarts="[C:1]([C:2]([C:3]([H:12])([H:13])[H:14])([C:4]([C@@:5]([C:6]([H:18])([H:19])[H:20])([O:7][H:21])[H:17])([H:15])[H:16])[H:11])([H:8])([H:9])[H:10]>>[C:1]([C:2]([C:3]([H:12])([H:13])[H:14])([C:4]([C:5]([C:6]([H:18])([H:19])[H:20])=[O:7])([H:15])[H:16])[H:11])([H:8])([H:9])[H:10].[H:17][H:21]"
C       -1.57952018      -0.64688212      -1.05722515
C       -1.13874197      -0.29593507       0.36120418
C       -2.24739229       0.45134575       1.09810377
C        0.14677267       0.52787071       0.36375241
C        1.40540979      -0.17089819      -0.13097467
C        2.62064082       0.74124728      -0.08145802
O        1.56537018      -1.36164866       0.42461692
H       -2.52239310      -1.19776624      -1.04830018
H       -0.83349284      -1.27183891      -1.55032324
H       -1.74309559       0.25818045      -1.65116618
H       -0.93143454      -1.22778139       0.89447828
H       -3.17262562      -0.12819048       1.12077061
H       -2.47208081       1.40545622       0.61101221
H       -1.96781603       0.66622870       2.13217274
H        0.34192573       0.85902158       1.39254542
H        0.01214115       1.44709027      -0.21852714
H        1.82514192      -1.08105609      -1.60682840
H        2.73447781       1.21273090       0.89637675
H        2.51088924       1.53250710      -0.82689690
H        3.53682395       0.18830938      -0.28970627
H        1.90899970      -1.90799118      -0.83362712
21
Frame=15 idx=010325 GeodesicLength=1.6042756875752202 rxn_smarts="[C:1]([C:2]([C:3]([H:12])([H:13])[H:14])([C:4]([C@@:5]([C:6]([H:18])([H:19])[H:20])([O:7][H:21])[H:17])([H:15])[H:16])[H:11])([H:8])([H:9])[H:10]>>[C:1]([C:2]([C:3]([H:12])([H:13])[H:14])([C:4]([C:5]([C:6]([H:18])([H:19])[H:20])=[O:7])([H:15])[H:16])[H:11])([H:8])([H:9])[H:10].[H:17][H:21]"
C       -1.58341022      -0.63318527      -1.05891486
C       -1.14370086      -0.29228552       0.36231249
C       -2.25177100       0.45066209       1.10434695
C        0.14259923       0.53040249       0.37000546
C        1.39637645      -0.16222940      -0.14733091
C        2.61143589       0.75025358      -0.08894719
O        1.55846118      -1.35637286       0.40060694
H       -2.52658396      -1.18364898      -1.05492270
H       -0.83548641      -1.25439917      -1.55390982
H       -1.74678783       0.27642016      -1.64598110
H       -0.93750423      -1.22826758       0.88877906
H       -3.17763109      -0.12802503       1.12329537
H       -2.47585841       1.40816212       0.62366602
H       -1.97191713       0.65879222       2.13974141
H        0.34166308       0.84885721       1.40196548
H        0.00505494       1.45676094      -0.20026082
H        1.88023575      -1.13757465      -1.60572365
H        2.71984114       1.23154995       0.88464281
H        2.50490270       1.53488341      -0.84202863
H        3.53086518       0.19886301      -0.28749451
H        1.95921561      -1.96961871      -0.81384780
21
Frame=16 idx=010325 GeodesicLength=1.7113385272053612 rxn_smarts="[C:1]([C:2]([C:3]([H:12])([H:13])[H:14])([C:4]([C@@:5]([C:6]([H:18])([H:19])[H:20])([O:7][H:21])[H:17])([H:15])[H:16])[H:11])([H:8])([H:9])[H:10]>>[C:1]([C:2]([C:3]([H:12])([H:13])[H:14])([C:4]([C:5]([C:6]([H:18])([H:19])[H:20])=[O:7])([H:15])[H:16])[H:11])([H:8])([H:9])[H:10].[H:17][H:21]"
C       -1.58774191      -0.61852776      -1.06098958
C       -1.14889408      -0.28853198       0.36310092
C       -2.25619310       0.44962756       1.11091486
C        0.13825722       0.53292556       0.37622949
C        1.38658348      -0.15278361      -0.16511945
C        2.60174130       0.75953494      -0.09762945
O        1.55096956      -1.35122154       0.37322148
H       -2.53124818      -1.16847127      -1.06209010
H       -0.83801277      -1.23572470      -1.55832933
H       -1.75095327       0.29594068      -1.64055306
H       -0.94370329      -1.22892412       0.88210324
H       -3.18269457      -0.12816631       1.12597435
H       -2.47973541       1.41076011       0.63727513
H       -1.97582346       0.65038208       2.14764485
H        0.34178971       0.83745086       1.41142945
H       -0.00234616       1.46682127      -0.18096851
H        1.93856407      -1.19611391      -1.60101065
H        2.70513951       1.25001190       0.87184692
H        2.49843850       1.53790328      -0.85783151
H        3.52415909       0.20962399      -0.28696403
H        2.01170376      -2.03251704      -0.78825502
