21
Frame=0 idx=010333 GeodesicLength=0.0 rxn_smarts="[C:1]([C:2]([C:3]([H:12])([H:13])[H:14])([C:4]([C@@:5]([C:6]([H:18])([H:19])[H:20])([O:7][H:21])[H:17])([H:15])[H:16])[H:11])([H:8])([H:9])[H:10]>>[C:1]([C:2]([C:3]([H:12])([H:13])[H:14])([C:4]([C:5](=[O:7])[H:17])([H:15])[H:16])[H:11])([H:8])([H:9])[H:10].[C:6]([H:18])([H:19])([H:20])[H:21]"
C       -1.66857951      -0.60884299      -1.14471803
C       -1.20442949      -0.34202141       0.28495195
C       -2.23486520       0.48537568       1.04653881
C        0.16055387       0.35774326       0.33054081
C        1.21774678      -0.52176598      -0.29547848
C        2.82312234       0.54091333      -0.09878114
O        1.49851552      -1.67938334       0.28553052
H       -2.65975819      -1.06643903      -1.14752245
H       -0.99704492      -1.28807061      -1.67311482
H       -1.73123400       0.32198112      -1.71719694
H       -1.08437381      -1.30408629       0.79166485
H       -3.20343748      -0.01846238       1.06304309
H       -2.37701642       1.46313752       0.57616376
H       -1.92739798       0.65344032       2.08093457
H        0.43280617       0.53664617       1.37323675
H        0.10509399       1.32254370      -0.18495067
H        1.20816430      -0.50617366      -1.39695868
H        2.82275676       1.06716748       0.85299670
H        2.58718329       1.20746914      -0.92215803
H        3.80318883       0.09295120      -0.30279995
H        2.42900515      -0.71412322       0.19807731
21
Frame=1 idx=010333 GeodesicLength=0.09258014573191055 rxn_smarts="[C:1]([C:2]([C:3]([H:12])([H:13])[H:14])([C:4]([C@@:5]([C:6]([H:18])([H:19])[H:20])([O:7][H:21])[H:17])([H:15])[H:16])[H:11])([H:8])([H:9])[H:10]>>[C:1]([C:2]([C:3]([H:12])([H:13])[H:14])([C:4]([C:5](=[O:7])[H:17])([H:15])[H:16])[H:11])([H:8])([H:9])[H:10].[C:6]([H:18])([H:19])([H:20])[H:21]"
C       -1.67349075      -0.60625081      -1.14618577
C       -1.21068410      -0.34358719       0.28466158
C       -2.24004580       0.48516175       1.04625410
C        0.15622609       0.35203814       0.33380291
C        1.21633324      -0.52387166      -0.29225878
C        2.83441753       0.54334616      -0.10406728
O        1.50024302      -1.67699081       0.29430244
H       -2.66632508      -1.06025147      -1.15163145
H       -1.00336976      -1.28679175      -1.67466501
H       -1.73185581       0.32586193      -1.71700857
H       -1.09488006      -1.30709343       0.78973016
H       -3.21025478      -0.01562421       1.06000445
H       -2.37823472       1.46440438       0.57779543
H       -1.93390609       0.64991871       2.08157805
H        0.42726631       0.52857368       1.37734437
H        0.10391116       1.31821857      -0.17952200
H        1.20046621      -0.51648134      -1.39389173
H        2.83006397       1.07649974       0.84412997
H        2.59680895       1.20856380      -0.92878355
H        3.82042024       0.11006414      -0.30954637
H        2.45689023      -0.72570831       0.20795703
21
Frame=2 idx=010333 GeodesicLength=0.1851167737911676 rxn_smarts="[C:1]([C:2]([C:3]([H:12])([H:13])[H:14])([C:4]([C@@:5]([C:6]([H:18])([H:19])[H:20])([O:7][H:21])[H:17])([H:15])[H:16])[H:11])([H:8])([H:9])[H:10]>>[C:1]([C:2]([C:3]([H:12])([H:13])[H:14])([C:4]([C:5](=[O:7])[H:17])([H:15])[H:16])[H:11])([H:8])([H:9])[H:10].[C:6]([H:18])([H:19])([H:20])[H:21]"
C       -1.67858182      -0.60357456      -1.14768889
C       -1.21702912      -0.34513805       0.28430828
C       -2.24530661       0.48486539       1.04602741
C        0.15174450       0.34643128       0.33693636
C        1.21467842      -0.52587902      -0.28923581
C        2.84588325       0.54547754      -0.10939251
O        1.50246044      -1.67406093       0.30328304
H       -2.67303436      -1.05401416      -1.15572151
H       -1.00990343      -1.28536693      -1.67636095
H       -1.73273877       0.32984084      -1.71678614
H       -1.10536199      -1.31009099       0.78765393
H       -3.21711459      -0.01290245       1.05706168
H       -2.37960052       1.46559857       0.57956969
H       -1.94045656       0.64625925       2.08226444
H        0.42158326       0.52064743       1.38130539
H        0.10260882       1.31396485      -0.17423959
H        1.19269193      -0.52690777      -1.39091180
H        2.83732041       1.08569457       0.83506774
H        2.60678125       1.20943775      -0.93544410
H        3.83777454       0.12722563      -0.31610580
H        2.48560095      -0.73750824       0.21840914
21
Frame=3 idx=010333 GeodesicLength=0.2776409993320691 rxn_smarts="[C:1]([C:2]([C:3]([H:12])([H:13])[H:14])([C:4]([C@@:5]([C:6]([H:18])([H:19])[H:20])([O:7][H:21])[H:17])([H:15])[H:16])[H:11])([H:8])([H:9])[H:10]>>[C:1]([C:2]([C:3]([H:12])([H:13])[H:14])([C:4]([C:5](=[O:7])[H:17])([H:15])[H:16])[H:11])([H:8])([H:9])[H:10].[C:6]([H:18])([H:19])([H:20])[H:21]"
C       -1.68386960      -0.60081345      -1.14922730
C       -1.22346936      -0.34667357       0.28388787
C       -2.25065208       0.48447899       1.04586419
C        0.14710060       0.34093410       0.33992658
C        1.21276295      -0.52777331      -0.28644368
C        2.85753728       0.54728255      -0.11475254
O        1.50520428      -1.67054662       0.31243740
H       -2.67990186      -1.04773059      -1.15978443
H       -1.01666547      -1.28379257      -1.67820922
H       -1.73390617       0.33391917      -1.71652876
H       -1.11581032      -1.31307906       0.78542971
H       -3.22401897      -0.01031069       1.05422786
H       -2.38112793       1.46671226       0.58149427
H       -1.94704616       0.64245446       2.08299638
H        0.41575683       0.51287563       1.38510375
H        0.10117269       1.30979482      -0.16911520
H        1.18482450      -0.53743796      -1.38804983
H        2.84453091       1.09474364       0.82579457
H        2.61713230       1.21006306      -0.94214367
H        3.85526035       0.14441159      -0.32244931
H        2.51518523      -0.74951245       0.22954135
21
Frame=4 idx=010333 GeodesicLength=0.3701897547535755 rxn_smarts="[C:1]([C:2]([C:3]([H:12])([H:13])[H:14])([C:4]([C@@:5]([C:6]([H:18])([H:19])[H:20])([O:7][H:21])[H:17])([H:15])[H:16])[H:11])([H:8])([H:9])[H:10]>>[C:1]([C:2]([C:3]([H:12])([H:13])[H:14])([C:4]([C:5](=[O:7])[H:17])([H:15])[H:16])[H:11])([H:8])([H:9])[H:10].[C:6]([H:18])([H:19])([H:20])[H:21]"
C       -1.68937485      -0.59796535      -1.15080175
C       -1.23001060      -0.34819362       0.28339481
C       -2.25608626       0.48399280       1.04577149
C        0.14228502       0.33555862       0.34275554
C        1.21056461      -0.52953949      -0.28392258
C        2.86940011       0.54872867      -0.12014022
O        1.50851693      -1.66639340       0.32172554
H       -2.68694753      -1.04140351      -1.16381097
H       -1.02368009      -1.28206241      -1.68021966
H       -1.73538749       0.33810055      -1.71623509
H       -1.12621490      -1.31605867       0.78304845
H       -3.23097006      -0.00786481       1.05151908
H       -2.38283236       1.46773669       0.58358032
H       -1.95366963       0.63849336       2.08377807
H        0.40978753       0.50526734       1.38871963
H        0.09958709       1.30572136      -0.16416426
H        1.17684404      -0.54805811      -1.38534189
H        2.85169924       1.10364023       0.81628753
H        2.62790136       1.21040108      -0.94888604
H        3.87288944       0.16159853      -0.32854183
H        2.54569838      -0.76169987       0.24148385
21
Frame=5 idx=010333 GeodesicLength=0.4627828318057063 rxn_smarts="[C:1]([C:2]([C:3]([H:12])([H:13])[H:14])([C:4]([C@@:5]([C:6]([H:18])([H:19])[H:20])([O:7][H:21])[H:17])([H:15])[H:16])[H:11])([H:8])([H:9])[H:10]>>[C:1]([C:2]([C:3]([H:12])([H:13])[H:14])([C:4]([C:5](=[O:7])[H:17])([H:15])[H:16])[H:11])([H:8])([H:9])[H:10].[C:6]([H:18])([H:19])([H:20])[H:21]"
C       -1.69512025      -0.59502805      -1.15241282
C       -1.23665800      -0.34969793       0.28282268
C       -2.26161297       0.48339521       1.04575789
C        0.13728757       0.33031954       0.34540230
C        1.20805979      -0.53115875      -0.28171705
C        2.88149267       0.54978384      -0.12554906
O        1.51244865      -1.66153785       0.33110186
H       -2.69419181      -1.03503776      -1.16779024
H       -1.03097280      -1.28016870      -1.68240386
H       -1.73721691       0.34238866      -1.71590284
H       -1.13656246      -1.31903084       0.78049971
H       -3.23796809      -0.00558462       1.04895391
H       -2.38473085       1.46866083       0.58584132
H       -1.96032025       0.63436291       2.08461473
H        0.40367614       0.49783470       1.39213019
H        0.09783387       1.30175982      -0.15940509
H        1.16872942      -0.55874789      -1.38282974
H        2.85882965       1.11237947       0.80652805
H        2.63913180       1.21040963      -0.95568207
H        3.89067440       0.17874494      -0.33434237
H        2.57719041      -0.77404714       0.25438250
21
Frame=6 idx=010333 GeodesicLength=0.5554341044936544 rxn_smarts="[C:1]([C:2]([C:3]([H:12])([H:13])[H:14])([C:4]([C@@:5]([C:6]([H:18])([H:19])[H:20])([O:7][H:21])[H:17])([H:15])[H:16])[H:11])([H:8])([H:9])[H:10]>>[C:1]([C:2]([C:3]([H:12])([H:13])[H:14])([C:4]([C:5](=[O:7])[H:17])([H:15])[H:16])[H:11])([H:8])([H:9])[H:10].[C:6]([H:18])([H:19])([H:20])[H:21]"
C       -1.70113173      -0.59199856      -1.15406151
C       -1.24341774      -0.35118712       0.28216429
C       -2.26723486       0.48267354       1.04583340
C        0.13209841       0.32522948       0.34784337
C        1.20522391      -0.53261498      -0.27987624
C        2.89384110       0.55041134      -0.13096848
O        1.51704885      -1.65591403       0.34050896
H       -2.70165959      -1.02863661      -1.17171050
H       -1.03857398      -1.27810201      -1.68477523
H       -1.73943232       0.34678891      -1.71552948
H       -1.14684079      -1.32199799       0.77777122
H       -3.24501332      -0.00349012       1.04655384
H       -2.38683907       1.46947331       0.58829301
H       -1.96698719       0.63004740       2.08551246
H        0.39742516       0.49058652       1.39530947
H        0.09589500       1.29792406      -0.15485813
H        1.16045669      -0.56948982      -1.38055831
H        2.86592545       1.12095793       0.79648539
H        2.65087276       1.21003542      -0.96254022
H        3.90863313       0.19581924      -0.33980510
H        2.60971012      -0.78651593       0.26840781
21
Frame=7 idx=010333 GeodesicLength=0.6481517991834704 rxn_smarts="[C:1]([C:2]([C:3]([H:12])([H:13])[H:14])([C:4]([C@@:5]([C:6]([H:18])([H:19])[H:20])([O:7][H:21])[H:17])([H:15])[H:16])[H:11])([H:8])([H:9])[H:10]>>[C:1]([C:2]([C:3]([H:12])([H:13])[H:14])([C:4]([C:5](=[O:7])[H:17])([H:15])[H:16])[H:11])([H:8])([H:9])[H:10].[C:6]([H:18])([H:19])([H:20])[H:21]"
C       -1.70743721      -0.58887311      -1.15574918
C       -1.25029589      -0.35266187       0.28141191
C       -2.27295466       0.48181329       1.04600959
C        0.12670717       0.32030276       0.35005292
C        1.20203135      -0.53388956      -0.27845326
C        2.90647188       0.55057519      -0.13638784
O        1.52237364      -1.64944732       0.34988461
H       -2.70937713      -1.02220422      -1.17555869
H       -1.04651558      -1.27585123      -1.68734903
H       -1.74207630       0.35130780      -1.71511187
H       -1.15703532      -1.32496299       0.77484944
H       -3.25210573      -0.00160455       1.04434331
H       -2.38917547       1.47016159       0.59095388
H       -1.97365925       0.62552893       2.08647892
H        0.39103820       0.48353382       1.39822905
H        0.09375031       1.29422942      -0.15054606
H        1.15200219      -0.58026373      -1.37857573
H        2.87299002       1.12937481       0.78613095
H        2.66317950       1.20922141      -0.96947669
H        3.92678145       0.21277558      -0.34487603
H        2.64330682      -0.79906602       0.28373982
21
Frame=8 idx=010333 GeodesicLength=0.7409381650367487 rxn_smarts="[C:1]([C:2]([C:3]([H:12])([H:13])[H:14])([C:4]([C@@:5]([C:6]([H:18])([H:19])[H:20])([O:7][H:21])[H:17])([H:15])[H:16])[H:11])([H:8])([H:9])[H:10]>>[C:1]([C:2]([C:3]([H:12])([H:13])[H:14])([C:4]([C:5](=[O:7])[H:17])([H:15])[H:16])[H:11])([H:8])([H:9])[H:10].[C:6]([H:18])([H:19])([H:20])[H:21]"
C       -1.71406896      -0.58564675      -1.15747749
C       -1.25729872      -0.35412341       0.28055586
C       -2.27877311       0.48079716       1.04630067
C        0.12110337       0.31555376       0.35200030
C        1.19845440      -0.53496342      -0.27750905
C        2.91941639       0.55023306      -0.14179297
O        1.52848457      -1.64205563       0.35915268
H       -2.71737459      -1.01574431      -1.17932013
H       -1.05483498      -1.27340198      -1.69014432
H       -1.74519794       0.35595396      -1.71464553
H       -1.16712979      -1.32793006       0.77171722
H       -3.25924272       0.00004559       1.04235098
H       -2.39175692       1.47071062       0.59384684
H       -1.98031912       0.62078467       2.08752341
H        0.38452060       0.47668661       1.40085517
H        0.09137839       1.29069192      -0.14649591
H        1.14333674      -0.59104694      -1.37693859
H        2.88002587       1.13763160       0.77542648
H        2.67611375       1.20789425      -0.97650961
H        3.94514194       0.22956579      -0.34949459
H        2.67802083      -0.81163650       0.30059858
21
Frame=9 idx=010333 GeodesicLength=0.8337679372913509 rxn_smarts="[C:1]([C:2]([C:3]([H:12])([H:13])[H:14])([C:4]([C@@:5]([C:6]([H:18])([H:19])[H:20])([O:7][H:21])[H:17])([H:15])[H:16])[H:11])([H:8])([H:9])[H:10]>>[C:1]([C:2]([C:3]([H:12])([H:13])[H:14])([C:4]([C:5](=[O:7])[H:17])([H:15])[H:16])[H:11])([H:8])([H:9])[H:10].[C:6]([H:18])([H:19])([H:20])[H:21]"
C       -1.72105684      -0.58231566      -1.15924691
C       -1.26442955      -0.35557345       0.27958656
C       -2.28468781       0.47960577       1.04672154
C        0.11527671       0.31099839       0.35365464
C        1.19446562      -0.53581393      -0.27710497
C        2.93270307       0.54935044      -0.14717423
O        1.53544783      -1.63364575       0.36822254
H       -2.72567819      -1.00926356      -1.18297854
H       -1.06356712      -1.27073928      -1.69317995
H       -1.74884661       0.36073503      -1.71412410
H       -1.17710364      -1.33090294       0.76835567
H       -3.26641645       0.00142985       1.04060658
H       -2.39459994       1.47110284       0.59699735
H       -1.98694681       0.61579054       2.08865552
H        0.37787840       0.47005583       1.40315396
H        0.08875526       1.28732926      -0.14273307
H        1.13443149      -0.60180587      -1.37570492
H        2.88703653       1.14573643       0.76433655
H        2.68974082       1.20598084      -0.98367132
H        3.96373228       0.24611669      -0.35359240
H        2.71386493      -0.82417147       0.31921950
21
Frame=10 idx=010333 GeodesicLength=0.926637772894062 rxn_smarts="[C:1]([C:2]([C:3]([H:12])([H:13])[H:14])([C:4]([C@@:5]([C:6]([H:18])([H:19])[H:20])([O:7][H:21])[H:17])([H:15])[H:16])[H:11])([H:8])([H:9])[H:10]>>[C:1]([C:2]([C:3]([H:12])([H:13])[H:14])([C:4]([C:5](=[O:7])[H:17])([H:15])[H:16])[H:11])([H:8])([H:9])[H:10].[C:6]([H:18])([H:19])([H:20])[H:21]"
C       -1.72844110      -0.57887432      -1.16105900
C       -1.27169683      -0.35701486       0.27849362
C       -2.29069930       0.47822002       1.04728986
C        0.10921741       0.30664769       0.35498015
C        1.19003639      -0.53642679      -0.27731096
C        2.94637440       0.54787833      -0.15250624
O        1.54332361      -1.62413071       0.37699842
H       -2.73432736      -1.00276572      -1.18651513
H       -1.07275811      -1.26784684      -1.69647756
H       -1.75308182       0.36566115      -1.71354220
H       -1.18694329      -1.33388853       0.76474749
H       -3.27362677       0.00252036       1.03914663
H       -2.39772235       1.47132263       0.60043167
H       -1.99352072       0.61052059       2.08988731
H        0.37112206       0.46364632       1.40508590
H        0.08585978       1.28415469      -0.13929020
H        1.12525544      -0.61251733      -1.37494102
H        2.89402437       1.15369281       0.75281404
H        2.70414017       1.20338616      -0.99097800
H        3.98258773       0.26238219      -0.35709292
H        2.75087628      -0.83656784       0.33983813
21
Frame=11 idx=010333 GeodesicLength=1.0195264867850957 rxn_smarts="[C:1]([C:2]([C:3]([H:12])([H:13])[H:14])([C:4]([C@@:5]([C:6]([H:18])([H:19])[H:20])([O:7][H:21])[H:17])([H:15])[H:16])[H:11])([H:8])([H:9])[H:10]>>[C:1]([C:2]([C:3]([H:12])([H:13])[H:14])([C:4]([C:5](=[O:7])[H:17])([H:15])[H:16])[H:11])([H:8])([H:9])[H:10].[C:6]([H:18])([H:19])([H:20])[H:21]"
C       -1.73625600      -0.57531763      -1.16291442
C       -1.27910592      -0.35845063       0.27726718
C       -2.29680439       0.47661949       1.04802308
C        0.10291680       0.30251296       0.35594362
C        1.18514002      -0.53678412      -0.27819232
C        2.96046846       0.54577557      -0.15776840
O        1.55216904      -1.61342115       0.38537405
H       -2.74335443      -0.99625573      -1.18991173
H       -1.08244815      -1.26470772      -1.70005745
H       -1.75795814       0.37074200      -1.71289208
H       -1.19663205      -1.33689306       0.76087307
H       -3.28086684       0.00328689       1.03800520
H       -2.40113847       1.47135211       0.60417775
H       -2.00001638       0.60494765       2.09123014
H        0.36426177       0.45746170       1.40661448
H        0.08266953       1.28118247      -0.13619411
H        1.11577737      -0.62314889      -1.37470800
H        2.90099237       1.16151045       0.74081531
H        2.71938532       1.20001440      -0.99846196
H        4.00173736       0.27829867      -0.35992130
H        2.78906274      -0.84872544       0.36269788
21
Frame=12 idx=010333 GeodesicLength=1.1124036219874873 rxn_smarts="[C:1]([C:2]([C:3]([H:12])([H:13])[H:14])([C:4]([C@@:5]([C:6]([H:18])([H:19])[H:20])([O:7][H:21])[H:17])([H:15])[H:16])[H:11])([H:8])([H:9])[H:10]>>[C:1]([C:2]([C:3]([H:12])([H:13])[H:14])([C:4]([C:5](=[O:7])[H:17])([H:15])[H:16])[H:11])([H:8])([H:9])[H:10].[C:6]([H:18])([H:19])([H:20])[H:21]"
C       -1.74454378      -0.57164007      -1.16481320
C       -1.28666247      -0.35988543       0.27589589
C       -2.30299752       0.47478073       1.04894248
C        0.09636720       0.29860391       0.35650481
C        1.17974846      -0.53687168      -0.27982497
C        2.97503492       0.54299601      -0.16292794
O        1.56204981      -1.60141511       0.39322057
H       -2.75279960      -0.98973907      -1.19314558
H       -1.09268622      -1.26130262      -1.70394362
H       -1.76354110       0.37598924      -1.71216518
H       -1.20615185      -1.33992559       0.75671120
H       -3.28812864       0.00369577       1.03722490
H       -2.40486236       1.47117164       0.60826870
H       -2.00640270       0.59903994       2.09269836
H        0.35731305       0.45150365       1.40769521
H        0.07916238       1.27842520      -0.13348021
H        1.10596323      -0.63367062      -1.37507842
H        2.90794541       1.16919827       0.72828287
H        2.73557094       1.19575161      -1.00615118
H        4.02121723       0.29379865      -0.36198371
H        2.82840362      -0.86050444       0.38806902
21
Frame=13 idx=010333 GeodesicLength=1.2052674406600268 rxn_smarts="[C:1]([C:2]([C:3]([H:12])([H:13])[H:14])([C:4]([C@@:5]([C:6]([H:18])([H:19])[H:20])([O:7][H:21])[H:17])([H:15])[H:16])[H:11])([H:8])([H:9])[H:10]>>[C:1]([C:2]([C:3]([H:12])([H:13])[H:14])([C:4]([C:5](=[O:7])[H:17])([H:15])[H:16])[H:11])([H:8])([H:9])[H:10].[C:6]([H:18])([H:19])([H:20])[H:21]"
C       -1.75333663      -0.56783710      -1.16675483
C       -1.29436941      -0.36132390       0.27437064
C       -2.30927127       0.47268271       1.05006666
C        0.08956394       0.29492636       0.35663191
C        1.17384157      -0.53667692      -0.28226994
C        2.99011696       0.53951236      -0.16796415
O        1.57301123      -1.58802376       0.40041130
H       -2.76269311      -0.98322118      -1.19619738
H       -1.10351057      -1.25761398      -1.70815515
H       -1.76988327       0.38141224      -1.71135160
H       -1.21548792      -1.34299414       0.75224288
H       -3.29540262       0.00371737       1.03684169
H       -2.40890277       1.47076294       0.61273383
H       -2.01265013       0.59276892       2.09430416
H        0.35029162       0.44576775       1.40829296
H        0.07531907       1.27589276      -0.13117296
H        1.09578167      -0.64404804      -1.37611233
H        2.91488835       1.17677215       0.71517604
H        2.75277232       1.19049740      -1.01408821
H        4.04105942       0.30881166      -0.36320260
H        2.86886156      -0.87178561       0.41619708
21
Frame=14 idx=010333 GeodesicLength=1.2981045933305972 rxn_smarts="[C:1]([C:2]([C:3]([H:12])([H:13])[H:14])([C:4]([C@@:5]([C:6]([H:18])([H:19])[H:20])([O:7][H:21])[H:17])([H:15])[H:16])[H:11])([H:8])([H:9])[H:10]>>[C:1]([C:2]([C:3]([H:12])([H:13])[H:14])([C:4]([C:5](=[O:7])[H:17])([H:15])[H:16])[H:11])([H:8])([H:9])[H:10].[C:6]([H:18])([H:19])([H:20])[H:21]"
C       -1.76267284      -0.56390436      -1.16873791
C       -1.30223211      -0.36277252       0.27268267
C       -2.31561737       0.47030443       1.05141612
C        0.08250433       0.29148113       0.35628941
C        1.16739940      -0.53619710      -0.28559136
C        3.00577070       0.53529176      -0.17283434
O        1.58509606      -1.57315845       0.40680734
H       -2.77307336      -0.97670639      -1.19904428
H       -1.11496607      -1.25362475      -1.71271167
H       -1.77704343       0.38702187      -1.71044244
H       -1.22462943      -1.34610967       0.74745074
H       -3.30268057       0.00332393       1.03689621
H       -2.41326556       1.47010852       0.61760363
H       -2.01872517       0.58610468       2.09606119
H        0.34321735       0.44024485       1.40836843
H        0.07112409       1.27358932      -0.12930281
H        1.08520435      -0.65425630      -1.37787166
H        2.92183192       1.18423889       0.70143896
H        2.77107998       1.18413471      -1.02229601
H        4.06130498       0.32328118      -0.36349197
H        2.91037278      -0.88239572       0.44730974
21
Frame=15 idx=010333 GeodesicLength=1.390935702120833 rxn_smarts="[C:1]([C:2]([C:3]([H:12])([H:13])[H:14])([C:4]([C@@:5]([C:6]([H:18])([H:19])[H:20])([O:7][H:21])[H:17])([H:15])[H:16])[H:11])([H:8])([H:9])[H:10]>>[C:1]([C:2]([C:3]([H:12])([H:13])[H:14])([C:4]([C:5](=[O:7])[H:17])([H:15])[H:16])[H:11])([H:8])([H:9])[H:10].[C:6]([H:18])([H:19])([H:20])[H:21]"
C       -1.77258213      -0.55983792      -1.17076016
C       -1.31025286      -0.36423806       0.27082490
C       -2.32202555       0.46762659       1.05300931
C        0.07518845       0.28826513       0.35544921
C        1.16040899      -0.53543246      -0.28983940
C        3.02204754       0.53031448      -0.17750196
O        1.59832957      -1.55674235       0.41227460
H       -2.78396966      -0.97019862      -1.20166657
H       -1.12708847      -1.24931823      -1.71762887
H       -1.78506892       0.39282772      -1.70942682
H       -1.23356873      -1.34928271       0.74231891
H       -3.30995197       0.00249091       1.03742319
H       -2.41795155       1.46919218       0.62290625
H       -2.02459581       0.57901929       2.09798149
H        0.33611043       0.43492046       1.40789046
H        0.06656545       1.27151588      -0.12789158
H        1.07420531      -0.66426932      -1.38040704
H        2.92878725       1.19161286       0.68702613
H        2.79057165       1.17655461      -1.03080718
H        4.08199142       0.33714958      -0.36277580
H        2.95284960      -0.89217001       0.48160091
21
Frame=16 idx=010333 GeodesicLength=1.4837991513943347 rxn_smarts="[C:1]([C:2]([C:3]([H:12])([H:13])[H:14])([C:4]([C@@:5]([C:6]([H:18])([H:19])[H:20])([O:7][H:21])[H:17])([H:15])[H:16])[H:11])([H:8])([H:9])[H:10]>>[C:1]([C:2]([C:3]([H:12])([H:13])[H:14])([C:4]([C:5](=[O:7])[H:17])([H:15])[H:16])[H:11])([H:8])([H:9])[H:10].[C:6]([H:18])([H:19])([H:20])[H:21]"
C       -1.78308822      -0.55563335      -1.17281912
C       -1.31843322      -0.36572835       0.26879211
C       -2.32848360       0.46463293       1.05486283
C        0.06762033       0.28526731       0.35408950
C        1.15286519      -0.53439471      -0.29504916
C        3.03900047       0.52457379      -0.18192798
O        1.61271686      -1.53871343       0.41668371
H       -2.79540666      -0.96369791      -1.20404798
H       -1.13990611      -1.24467908      -1.72291993
H       -1.79399682       0.39884033      -1.70829412
H       -1.24230436      -1.35252535       0.73683371
H       -3.31720666       0.00120064       1.03845266
H       -2.42295390       1.46800098       0.62866752
H       -2.03023101       0.57148646       2.10007624
H        0.32899213       0.42977232       1.40683451
H        0.06163813       1.26966529      -0.12695549
H        1.06276383      -0.67407570      -1.38375390
H        2.93577190       1.19890052       0.67189487
H        2.81131563       1.16765497      -1.03964867
H        4.10315463       0.35037689      -0.36099477
H        2.99617146      -0.90092456       0.51922347
