19
Frame=0 idx=011036 GeodesicLength=0.0 rxn_smarts="[C:1]([C:2]([C:3]([C@@:4]1([H:15])[C:5]([H:16])([H:17])[C@:6]1([O:7][H:19])[H:18])([H:13])[H:14])([H:11])[H:12])([H:8])([H:9])[H:10]>>[C:1]([C:2]([C:3]([O:7][H:19])([H:13])[H:14])([H:11])[H:12])([H:8])([H:9])[H:10].[C:4]1([H:15])=[C:6]([H:18])[C:5]1([H:16])[H:17]"
C       -2.81737046       0.34646399      -0.34588532
C       -1.38308808       0.48007579       0.17368839
C       -0.47594040      -0.51657162      -0.47465846
C        1.33711889      -0.03680277       1.18526638
C        2.38573808      -0.98118657       0.66111222
C        2.03511835       0.29163137      -0.02120628
O        1.17490906       0.11883877      -1.20759036
H       -2.87880515       0.54666622      -1.41827760
H       -3.21134078      -0.65675806      -0.16993668
H       -3.47447964       1.05294226       0.16395176
H       -1.31854126       0.34839349       1.25414211
H       -1.02832364       1.49715482      -0.01592640
H       -0.71164083      -0.70383731      -1.52165985
H       -0.25333807      -1.42011422       0.06878242
H        1.47897621       0.50956987       2.11187979
H        2.06713832      -1.91401854       0.19510140
H        3.37885009      -1.04775925       1.10136256
H        2.74920741       1.08759854      -0.20345632
H        0.94581188       0.99771324      -1.53668968
19
Frame=1 idx=011036 GeodesicLength=0.10665303118204869 rxn_smarts="[C:1]([C:2]([C:3]([C@@:4]1([H:15])[C:5]([H:16])([H:17])[C@:6]1([O:7][H:19])[H:18])([H:13])[H:14])([H:11])[H:12])([H:8])([H:9])[H:10]>>[C:1]([C:2]([C:3]([O:7][H:19])([H:13])[H:14])([H:11])[H:12])([H:8])([H:9])[H:10].[C:4]1([H:15])=[C:6]([H:18])[C:5]1([H:16])[H:17]"
C       -2.82082897       0.33401074      -0.33541003
C       -1.38011074       0.50633661       0.15271876
C       -0.46697764      -0.50255211      -0.46987513
C        1.33646337      -0.06355443       1.18575958
C        2.39335276      -0.99207878       0.65015283
C        2.04762005       0.29917994      -0.00046569
O        1.17897924       0.13381657      -1.22090307
H       -2.90291001       0.48860286      -1.41393708
H       -3.19849198      -0.66571407      -0.11041793
H       -3.47880590       1.05306210       0.15548463
H       -1.30306302       0.42700878       1.23754822
H       -1.04349540       1.52004177      -0.08361173
H       -0.70413362      -0.71426956      -1.51241325
H       -0.27559498      -1.41074319       0.07918653
H        1.45622201       0.44732477       2.13501030
H        2.07923619      -1.90989816       0.15293908
H        3.37980669      -1.07015819       1.10271095
H        2.75347670       1.10844723      -0.15242272
H        0.94925528       1.01113712      -1.55205427
19
Frame=2 idx=011036 GeodesicLength=0.21287605232091972 rxn_smarts="[C:1]([C:2]([C:3]([C@@:4]1([H:15])[C:5]([H:16])([H:17])[C@:6]1([O:7][H:19])[H:18])([H:13])[H:14])([H:11])[H:12])([H:8])([H:9])[H:10]>>[C:1]([C:2]([C:3]([O:7][H:19])([H:13])[H:14])([H:11])[H:12])([H:8])([H:9])[H:10].[C:4]1([H:15])=[C:6]([H:18])[C:5]1([H:16])[H:17]"
C       -2.82323575       0.32202253      -0.32301342
C       -1.37659641       0.53150914       0.13040993
C       -0.45781876      -0.48918049      -0.46653296
C        1.33442189      -0.09005080       1.18560501
C        2.40035907      -1.00213009       0.63988993
C        2.05956404       0.30680107       0.02155199
O        1.18337912       0.14874858      -1.23484205
H       -2.92649756       0.43000494      -1.40538939
H       -3.18390120      -0.67168250      -0.04864389
H       -3.48182190       1.05326171       0.14880676
H       -1.28589636       0.50539015       1.21689885
H       -1.05885212       1.53947998      -0.15300694
H       -0.69632805      -0.72386067      -1.50438499
H       -0.29781260      -1.40133751       0.08756230
H        1.43043920       0.38418899       2.15592648
H        2.09167563      -1.90401790       0.11164953
H        3.37953161      -1.09209911       1.10529688
H        2.75651128       1.12865840      -0.09922184
H        0.95287888       1.02429357      -1.56856217
19
Frame=3 idx=011036 GeodesicLength=0.31873689124509497 rxn_smarts="[C:1]([C:2]([C:3]([C@@:4]1([H:15])[C:5]([H:16])([H:17])[C@:6]1([O:7][H:19])[H:18])([H:13])[H:14])([H:11])[H:12])([H:8])([H:9])[H:10]>>[C:1]([C:2]([C:3]([O:7][H:19])([H:13])[H:14])([H:11])[H:12])([H:8])([H:9])[H:10].[C:4]1([H:15])=[C:6]([H:18])[C:5]1([H:16])[H:17]"
C       -2.82451208       0.31073049      -0.30870562
C       -1.37253617       0.55539200       0.10688333
C       -0.44851306      -0.47665727      -0.46466359
C        1.33097752      -0.11628037       1.18477013
C        2.40687583      -1.01121403       0.63038439
C        2.07079303       0.31452426       0.04488212
O        1.18803456       0.16348412      -1.24948509
H       -2.94940744       0.37142851      -1.39250722
H       -3.16753216      -0.67438455       0.01507512
H       -3.48341510       1.05374436       0.14399702
H       -1.26710395       0.58299946       1.19212703
H       -1.07426033       1.55521193      -0.22362011
H       -0.68836161      -0.73279166      -1.49768896
H       -0.31988584      -1.39212121       0.09379777
H        1.40143622       0.32027856       2.17440268
H        2.10477353      -1.89631626       0.07136205
H        3.37812143      -1.11332353       1.10915518
H        2.75798713       1.14830767      -0.04382850
H        0.95652847       1.03698751      -1.58633774
19
Frame=4 idx=011036 GeodesicLength=0.4243103217379447 rxn_smarts="[C:1]([C:2]([C:3]([C@@:4]1([H:15])[C:5]([H:16])([H:17])[C@:6]1([O:7][H:19])[H:18])([H:13])[H:14])([H:11])[H:12])([H:8])([H:9])[H:10]>>[C:1]([C:2]([C:3]([O:7][H:19])([H:13])[H:14])([H:11])[H:12])([H:8])([H:9])[H:10].[C:4]1([H:15])=[C:6]([H:18])[C:5]1([H:16])[H:17]"
C       -2.82459733       0.30034678      -0.29251463
C       -1.36792290       0.57782709       0.08226370
C       -0.43909473      -0.46514311      -0.46428281
C        1.32614614      -0.14225671       1.18323446
C        2.41302601      -1.01922687       0.62167667
C        2.08115456       0.32238122       0.06957408
O        1.19288136       0.17791442      -1.26489898
H       -2.97154064       0.31327846      -1.37517510
H       -3.14931574      -0.67354173       0.08047766
H       -3.48349706       1.05473428       0.14104519
H       -1.24674691       0.65930665       1.16320880
H       -1.08966254       1.56708286      -0.29499976
H       -0.68034808      -0.74122102      -1.49241953
H       -0.34172360      -1.38329800       0.09780295
H        1.36910285       0.25566785       2.19019438
H        2.11882390      -1.88673113       0.03217010
H        3.37567181      -1.13363806       1.11430333
H        2.75757338       1.16745600       0.01381860
H        0.96006953       1.04906102      -1.60547912
19
Frame=5 idx=011036 GeodesicLength=0.5296762970429 rxn_smarts="[C:1]([C:2]([C:3]([C@@:4]1([H:15])[C:5]([H:16])([H:17])[C@:6]1([O:7][H:19])[H:18])([H:13])[H:14])([H:11])[H:12])([H:8])([H:9])[H:10]>>[C:1]([C:2]([C:3]([O:7][H:19])([H:13])[H:14])([H:11])[H:12])([H:8])([H:9])[H:10].[C:4]1([H:15])=[C:6]([H:18])[C:5]1([H:16])[H:17]"
C       -2.82334941       0.29111720      -0.27467194
C       -1.36283709       0.59869131       0.05683565
C       -0.42963956      -0.45476566      -0.46515974
C        1.32005991      -0.16801134       1.18103644
C        2.41892354      -1.02606371       0.61378183
C        2.09052117       0.33040401       0.09562995
O        1.19773106       0.19188813      -1.28112445
H       -2.99250742       0.25636424      -1.35359799
H       -3.12925985      -0.66911831       0.14658901
H       -3.48193334       1.05640553       0.13996941
H       -1.22506939       0.73351452       1.13061177
H       -1.10509830       1.57503189      -0.36666804
H       -0.67243058      -0.74945391      -1.48832604
H       -0.36326992      -1.37502211       0.09985434
H        1.33374685       0.19056191       2.20312881
H        2.13400799      -1.87514595      -0.00586853
H        3.37231464      -1.15288558       1.12063826
H        2.75488976       1.18618929       0.07341080
H        0.96319993       1.06029854      -1.62606954
19
Frame=6 idx=011036 GeodesicLength=0.6348288025408069 rxn_smarts="[C:1]([C:2]([C:3]([C@@:4]1([H:15])[C:5]([H:16])([H:17])[C@:6]1([O:7][H:19])[H:18])([H:13])[H:14])([H:11])[H:12])([H:8])([H:9])[H:10]>>[C:1]([C:2]([C:3]([O:7][H:19])([H:13])[H:14])([H:11])[H:12])([H:8])([H:9])[H:10].[C:4]1([H:15])=[C:6]([H:18])[C:5]1([H:16])[H:17]"
C       -2.82080802       0.28316210      -0.25526233
C       -1.35724794       0.61784821       0.03072701
C       -0.42015570      -0.44566931      -0.46733582
C        1.31276746      -0.19347991       1.17813027
C        2.42465507      -1.03163868       0.60671840
C        2.09876750       0.33863214       0.12305712
O        1.20252429       0.20532939      -1.29823536
H       -3.01231370       0.20103585      -1.32787455
H       -3.10742120      -0.66104237       0.21326078
H       -3.47873702       1.05891916       0.14067083
H       -1.20217273       0.80527199       1.09439228
H       -1.12034921       1.57901347      -0.43793242
H       -0.66470455      -0.75761602      -1.48553815
H       -0.38445412      -1.36746300       0.09986027
H        1.29542469       0.12507872       2.21301872
H        2.15050452      -1.86153564      -0.04262771
H        3.36814109      -1.17093087       1.12812516
H        2.74978495       1.20450473       0.13503455
H        0.96579461       1.07058007      -1.64818906
19
Frame=7 idx=011036 GeodesicLength=0.7398743354682122 rxn_smarts="[C:1]([C:2]([C:3]([C@@:4]1([H:15])[C:5]([H:16])([H:17])[C@:6]1([O:7][H:19])[H:18])([H:13])[H:14])([H:11])[H:12])([H:8])([H:9])[H:10]>>[C:1]([C:2]([C:3]([O:7][H:19])([H:13])[H:14])([H:11])[H:12])([H:8])([H:9])[H:10].[C:4]1([H:15])=[C:6]([H:18])[C:5]1([H:16])[H:17]"
C       -2.81693387       0.27659084      -0.23440214
C       -1.35116884       0.63525717       0.00409739
C       -0.41067115      -0.43791947      -0.47074969
C        1.30436634      -0.21865804       1.17452127
C        2.43029048      -1.03589235       0.60049506
C        2.10578942       0.34709248       0.15189455
O        1.20715900       0.21816262      -1.31629736
H       -3.03089105       0.14764407      -1.29815619
H       -3.08374767      -0.64934529       0.28016526
H       -3.47387271       1.06237525       0.14304961
H       -1.17817029       0.87421740       1.05476809
H       -1.13535898       1.57913524      -0.50838250
H       -0.65726817      -0.76584294      -1.48402037
H       -0.40524925      -1.36072270       0.09788100
H        1.25433150       0.05925716       2.21970591
H        2.16843839      -1.84583575      -0.07805363
H        3.36323219      -1.18771643       1.13669324
H        2.74202979       1.22240905       0.19870376
H        0.96769486       1.07979166      -1.67191325
19
Frame=8 idx=011036 GeodesicLength=0.8448623903466697 rxn_smarts="[C:1]([C:2]([C:3]([C@@:4]1([H:15])[C:5]([H:16])([H:17])[C@:6]1([O:7][H:19])[H:18])([H:13])[H:14])([H:11])[H:12])([H:8])([H:9])[H:10]>>[C:1]([C:2]([C:3]([O:7][H:19])([H:13])[H:14])([H:11])[H:12])([H:8])([H:9])[H:10].[C:4]1([H:15])=[C:6]([H:18])[C:5]1([H:16])[H:17]"
C       -2.81172680       0.27149324      -0.21229052
C       -1.34462543       0.65086973      -0.02285990
C       -0.40120897      -0.43157247      -0.47527614
C        1.29499784      -0.24350003       1.17022522
C        2.43590923      -1.03876533       0.59510737
C        2.11150365       0.35580927       0.18216001
O        1.21151061       0.23029824      -1.33536882
H       -3.04813254       0.09666505      -1.26472295
H       -3.05828014      -0.63414869       0.34675210
H       -3.46736748       1.06682498       0.14706692
H       -1.15325381       0.93993906       1.01207891
H       -1.15006752       1.57554892      -0.57753991
H       -0.65020625      -0.77429411      -1.48365560
H       -0.42563278      -1.35487208       0.09408096
H        1.21083415      -0.00674887       2.22303286
H        2.18787152      -1.82799822      -0.11205591
H        3.35768315      -1.20320803       1.14623466
H        2.73148050       1.23985572       0.26433609
H        0.96871107       1.08780362      -1.69730534
19
Frame=9 idx=011036 GeodesicLength=0.9499467923813636 rxn_smarts="[C:1]([C:2]([C:3]([C@@:4]1([H:15])[C:5]([H:16])([H:17])[C@:6]1([O:7][H:19])[H:18])([H:13])[H:14])([H:11])[H:12])([H:8])([H:9])[H:10]>>[C:1]([C:2]([C:3]([O:7][H:19])([H:13])[H:14])([H:11])[H:12])([H:8])([H:9])[H:10].[C:4]1([H:15])=[C:6]([H:18])[C:5]1([H:16])[H:17]"
C       -2.80501484       0.26792125      -0.18902122
C       -1.33768589       0.66484051      -0.05008137
C       -0.39178613      -0.42655148      -0.48077348
C        1.28474759      -0.26819922       1.16533001
C        2.44148109      -1.04020640       0.59053385
C        2.11570897       0.36477326       0.21404745
O        1.21551670       0.24170813      -1.35548248
H       -3.06388329       0.04810965      -1.22763752
H       -3.03070202      -0.61551378       0.41274996
H       -3.45907257       1.07236888       0.15258104
H       -1.12743599       1.00233104       0.96659132
H       -1.16482152       1.56848343      -0.64563803
H       -0.64354986      -0.78306780      -1.48426379
H       -0.44566892      -1.34987349       0.08867088
H        1.16545474      -0.07320926       2.22290985
H        2.20878869      -1.80773208      -0.14475430
H        3.35147832      -1.21749857       1.15658443
H        2.71765019       1.25681325       0.33206058
H        0.96879475       1.09450269      -1.72440720
19
Frame=10 idx=011036 GeodesicLength=1.0550664335138131 rxn_smarts="[C:1]([C:2]([C:3]([C@@:4]1([H:15])[C:5]([H:16])([H:17])[C@:6]1([O:7][H:19])[H:18])([H:13])[H:14])([H:11])[H:12])([H:8])([H:9])[H:10]>>[C:1]([C:2]([C:3]([O:7][H:19])([H:13])[H:14])([H:11])[H:12])([H:8])([H:9])[H:10].[C:4]1([H:15])=[C:6]([H:18])[C:5]1([H:16])[H:17]"
C       -2.79692426       0.26589194      -0.16480116
C       -1.33033530       0.67707851      -0.07737152
C       -0.38239773      -0.42293652      -0.48718476
C        1.27376449      -0.29257353       1.15981159
C        2.44707477      -1.04017792       0.58677415
C        2.11840702       0.37400404       0.24749678
O        1.21906347       0.25232858      -1.37671335
H       -3.07816473       0.00243917      -1.18732326
H       -3.00123439      -0.59370225       0.47776155
H       -3.44913141       1.07898176       0.15952036
H       -1.10098093       1.06113544       0.91860184
H       -1.17930213       1.55813563      -0.71186803
H       -0.63737340      -0.79226853      -1.48582138
H       -0.46531468      -1.34578003       0.08174177
H        1.11848225      -0.13983709       2.21926000
H        2.23120073      -1.78510753      -0.17596381
H        3.34473244      -1.23056107       1.16763319
H        2.70069319       1.27317277       0.40175654
H        0.96774060       1.09977663      -1.75331051
19
Frame=11 idx=011036 GeodesicLength=1.160301656110523 rxn_smarts="[C:1]([C:2]([C:3]([C@@:4]1([H:15])[C:5]([H:16])([H:17])[C@:6]1([O:7][H:19])[H:18])([H:13])[H:14])([H:11])[H:12])([H:8])([H:9])[H:10]>>[C:1]([C:2]([C:3]([O:7][H:19])([H:13])[H:14])([H:11])[H:12])([H:8])([H:9])[H:10].[C:4]1([H:15])=[C:6]([H:18])[C:5]1([H:16])[H:17]"
C       -2.78744100       0.26540597      -0.13979626
C       -1.32259936       0.68765239      -0.10463150
C       -0.37305008      -0.42069626      -0.49440939
C        1.26216341      -0.31665000       1.15371446
C        2.45270560      -1.03864304       0.58379799
C        2.11949400       0.38348842       0.28261360
O        1.22205028       0.26210017      -1.39913394
H       -3.09093544      -0.04022689      -1.14404701
H       -2.96983930      -0.56889972       0.54152216
H       -3.43754777       1.08668257       0.16773707
H       -1.07400408       1.11628524       0.86840879
H       -1.19352522       1.54478050      -0.77605270
H       -0.63172890      -0.80197383      -1.48820520
H       -0.48460705      -1.34255509       0.07346242
H        1.07040688      -0.20665063       2.21209373
H        2.25505736      -1.75999540      -0.20568123
H        3.33751492      -1.24244544       1.17920831
H        2.68046035       1.28881329       0.47349240
H        0.96542541       1.10352775      -1.78409371
19
Frame=12 idx=011036 GeodesicLength=1.265662679182989 rxn_smarts="[C:1]([C:2]([C:3]([C@@:4]1([H:15])[C:5]([H:16])([H:17])[C@:6]1([O:7][H:19])[H:18])([H:13])[H:14])([H:11])[H:12])([H:8])([H:9])[H:10]>>[C:1]([C:2]([C:3]([O:7][H:19])([H:13])[H:14])([H:11])[H:12])([H:8])([H:9])[H:10].[C:4]1([H:15])=[C:6]([H:18])[C:5]1([H:16])[H:17]"
C       -2.77656173       0.26645490      -0.11416767
C       -1.31451093       0.69664232      -0.13175920
C       -0.36374166      -0.41977851      -0.50231601
C        1.25007916      -0.34042006       1.14709002
C        2.45837305      -1.03557501       0.58158825
C        2.11890463       0.39320182       0.31947782
O        1.22438754       0.27097382      -1.42280925
H       -3.10214717      -0.07967384      -1.09815402
H       -2.93652290      -0.54140373       0.60368968
H       -3.42434764       1.09543984       0.17718272
H       -1.04664611       1.16774246       0.81632331
H       -1.20754378       1.52867641      -0.83804614
H       -0.62664273      -0.81225390      -1.49125490
H       -0.50357294      -1.34012653       0.06405869
H        1.02172794      -0.27361758       2.20139618
H        2.28027297      -1.73227788      -0.23386627
H        3.32987195      -1.25323625       1.19113711
H        2.65687994       1.30358627       0.54728388
H        0.96174039       1.10564546      -1.81685419
19
Frame=13 idx=011036 GeodesicLength=1.371323379882672 rxn_smarts="[C:1]([C:2]([C:3]([C@@:4]1([H:15])[C:5]([H:16])([H:17])[C@:6]1([O:7][H:19])[H:18])([H:13])[H:14])([H:11])[H:12])([H:8])([H:9])[H:10]>>[C:1]([C:2]([C:3]([O:7][H:19])([H:13])[H:14])([H:11])[H:12])([H:8])([H:9])[H:10].[C:4]1([H:15])=[C:6]([H:18])[C:5]1([H:16])[H:17]"
C       -2.76415814       0.26906398      -0.08801957
C       -1.30607466       0.70420500      -0.15876261
C       -0.35448597      -0.42012664      -0.51080374
C        1.23755972      -0.36409151       1.14002918
C        2.46407258      -1.03088452       0.58011575
C        2.11644317       0.40307336       0.35831830
O        1.22598495       0.27885499      -1.44784500
H       -3.11169744      -0.11584880      -1.04982003
H       -2.90112181      -0.51141777       0.66405971
H       -3.40935668       1.10537464       0.18779967
H       -1.01887588       1.21564788       0.76257573
H       -1.22154556       1.51003410      -0.89806331
H       -0.62216520      -0.82319568      -1.49480562
H       -0.52231011      -1.33841522       0.05373554
H        0.97295995      -0.34102613       2.18732264
H        2.30680829      -1.70159440      -0.26062154
H        3.32189213      -1.26295753       1.20321488
H        2.62950035       1.31738405       0.62335135
H        0.95657032       1.10592023      -1.85178132
19
Frame=14 idx=011036 GeodesicLength=1.4771570617338783 rxn_smarts="[C:1]([C:2]([C:3]([C@@:4]1([H:15])[C:5]([H:16])([H:17])[C@:6]1([O:7][H:19])[H:18])([H:13])[H:14])([H:11])[H:12])([H:8])([H:9])[H:10]>>[C:1]([C:2]([C:3]([O:7][H:19])([H:13])[H:14])([H:11])[H:12])([H:8])([H:9])[H:10].[C:4]1([H:15])=[C:6]([H:18])[C:5]1([H:16])[H:17]"
C       -2.75030697       0.27317941      -0.06143668
C       -1.29728835       0.71035015      -0.18557787
C       -0.34525496      -0.42172532      -0.51987078
C        1.22470187      -0.38755860       1.13251495
C        2.46980061      -1.02453220       0.57938582
C        2.11203428       0.41308367       0.39919859
O        1.22679622       0.28569963      -1.47432675
H       -3.11968294      -0.14867492      -0.99929361
H       -2.86367258      -0.47914780       0.72257954
H       -3.39267297       1.11642407       0.19954076
H       -0.99081665       1.26006122       0.70725336
H       -1.23539442       1.48911901      -0.95577498
H       -0.61831279      -0.83478980      -1.49887307
H       -0.54080360      -1.33736790       0.04252706
H        0.92440235      -0.40881610       2.16981897
H        2.33458701      -1.66790264      -0.28580092
H        3.31361323      -1.27163472       1.21532657
H        2.59840690       1.32997221       0.70175743
H        0.94986375       1.10426065      -1.88894838
19
Frame=15 idx=011036 GeodesicLength=1.5832075897319677 rxn_smarts="[C:1]([C:2]([C:3]([C@@:4]1([H:15])[C:5]([H:16])([H:17])[C@:6]1([O:7][H:19])[H:18])([H:13])[H:14])([H:11])[H:12])([H:8])([H:9])[H:10]>>[C:1]([C:2]([C:3]([O:7][H:19])([H:13])[H:14])([H:11])[H:12])([H:8])([H:9])[H:10].[C:4]1([H:15])=[C:6]([H:18])[C:5]1([H:16])[H:17]"
C       -2.73491783       0.27880287      -0.03444000
C       -1.28812978       0.71519158      -0.21223853
C       -0.33603852      -0.42452734      -0.52951211
C        1.21152442      -0.41092162       1.12458314
C        2.47552867      -1.01640825       0.57940663
C        2.10547459       0.42316435       0.44232012
O        1.22677917       0.29143176      -1.50237396
H       -3.12607953      -0.17820709      -0.94662343
H       -2.82400460      -0.44471004       0.77927608
H       -3.37418092       1.12864997       0.21239594
H       -0.96241914       1.30116990       0.65038179
H       -1.24916815       1.46611968      -1.01132103
H       -0.61511875      -0.84704533      -1.50342549
H       -0.55910879      -1.33690754       0.03049636
H        0.87637079      -0.47728596       2.14890934
H        2.36355027      -1.63089911      -0.30938150
H        3.30508034      -1.27924979       1.22732326
H        2.56327708       1.34113586       0.78275970
H        0.94158067       1.10049612      -1.92853631
19
Frame=16 idx=011036 GeodesicLength=1.6895047516754804 rxn_smarts="[C:1]([C:2]([C:3]([C@@:4]1([H:15])[C:5]([H:16])([H:17])[C@:6]1([O:7][H:19])[H:18])([H:13])[H:14])([H:11])[H:12])([H:8])([H:9])[H:10]>>[C:1]([C:2]([C:3]([O:7][H:19])([H:13])[H:14])([H:11])[H:12])([H:8])([H:9])[H:10].[C:4]1([H:15])=[C:6]([H:18])[C:5]1([H:16])[H:17]"
C       -2.71794220       0.28594944      -0.00715002
C       -1.27857978       0.71881319      -0.23869859
C       -0.32684035      -0.42850822      -0.53964734
C        1.19811435      -0.43425744       1.11627457
C        2.48125564      -1.00639016       0.58018007
C        2.09657809       0.43321071       0.48787046
O        1.22582486       0.29590881      -1.53214696
H       -3.13083536      -0.20426449      -0.89211742
H       -2.78212511      -0.40835156       0.83393560
H       -3.35377065       1.14213587       0.22634181
H       -0.93370400       1.33904098       0.59218959
H       -1.26287043       1.44125292      -1.06464413
H       -0.61264940      -0.86002564      -1.50833576
H       -0.57727986      -1.33695392       0.01783118
H        0.82934787      -0.54654019       2.12469056
H        2.39361762      -1.59025049      -0.33131937
H        3.29643274      -1.28574287       1.23899972
H        2.52384169       1.35060027       0.86651922
H        0.93158428       1.09437277      -1.97077318
