11
Frame=0 idx=000085 GeodesicLength=0.0 rxn_smarts="[N:1]([c:2]1[c:3]([H:9])[n:4]([H:10])[c:5]([H:11])[n:6]1)([H:7])[H:8]>>[N+:1]([c:2]1[c-:3][n:4]([H:10])[c:5]([H:11])[n:6]1)([H:7])([H:8])[H:9]"
N        1.84290995       0.24448514      -0.11903579
C        0.46049111      -0.13366201       0.07935075
C       -0.29367407       0.85276947      -0.46513959
N       -1.55765117       0.36280966      -0.20942018
C       -1.44214743      -0.83456205       0.44437071
N       -0.19072979      -1.18048679       0.64429403
H        2.38132849      -0.34965069      -0.73978517
H        2.37306193       0.44846315       0.72090988
H        1.15688160       1.20804389      -0.65096590
H       -2.42917638       0.79564409      -0.45563769
H       -2.30129420      -1.41385383       0.75105890
11
Frame=1 idx=000085 GeodesicLength=0.04379593440754007 rxn_smarts="[N:1]([c:2]1[c:3]([H:9])[n:4]([H:10])[c:5]([H:11])[n:6]1)([H:7])[H:8]>>[N+:1]([c:2]1[c-:3][n:4]([H:10])[c:5]([H:11])[n:6]1)([H:7])([H:8])[H:9]"
N        1.84301292       0.24246210      -0.12365394
C        0.46155507      -0.11118582       0.11685037
C       -0.29506228       0.87234599      -0.43320061
N       -1.55699936       0.35827262      -0.21548821
C       -1.44000763      -0.84249868       0.43002978
N       -0.18807001      -1.17934132       0.64160371
H        2.35890171      -0.38373894      -0.73189343
H        2.39000658       0.45661481       0.70278553
H        1.15325294       1.21862457      -0.66341524
H       -2.42847036       0.78898672      -0.46547380
H       -2.29811958      -1.42054204       0.74185584
11
Frame=2 idx=000085 GeodesicLength=0.08753242630582261 rxn_smarts="[N:1]([c:2]1[c:3]([H:9])[n:4]([H:10])[c:5]([H:11])[n:6]1)([H:7])[H:8]>>[N+:1]([c:2]1[c-:3][n:4]([H:10])[c:5]([H:11])[n:6]1)([H:7])([H:8])[H:9]"
N        1.84209429       0.23956470      -0.12860625
C        0.46280484      -0.09110392       0.15106204
C       -0.29649517       0.89118292      -0.40134633
N       -1.55542275       0.35511192      -0.21963378
C       -1.43723380      -0.84717822       0.42107977
N       -0.18476339      -1.17766365       0.63914500
H        2.33671577      -0.41564216      -0.72380258
H        2.40497598       0.46319190       0.68444820
H        1.14820944       1.22917174      -0.67476610
H       -2.42658948       0.78151057      -0.47785794
H       -2.29429573      -1.42814582       0.73027797
11
Frame=3 idx=000085 GeodesicLength=0.1312068345985297 rxn_smarts="[N:1]([c:2]1[c:3]([H:9])[n:4]([H:10])[c:5]([H:11])[n:6]1)([H:7])[H:8]>>[N+:1]([c:2]1[c-:3][n:4]([H:10])[c:5]([H:11])[n:6]1)([H:7])([H:8])[H:9]"
N        1.84068457       0.23661376      -0.13282262
C        0.46419603      -0.07498916       0.17905226
C       -0.29785134       0.90695243      -0.37414306
N       -1.55349433       0.35330605      -0.22156243
C       -1.43428109      -0.85072334       0.41393406
N       -0.18108336      -1.17810693       0.63194411
H        2.31801415      -0.44399199      -0.71342710
H        2.41583238       0.46948344       0.66889001
H        1.14230695       1.23975011      -0.68550434
H       -2.42405478       0.77516222      -0.48903039
H       -2.29026919      -1.43345658       0.72266949
11
Frame=4 idx=000085 GeodesicLength=0.17481553493347626 rxn_smarts="[N:1]([c:2]1[c:3]([H:9])[n:4]([H:10])[c:5]([H:11])[n:6]1)([H:7])[H:8]>>[N+:1]([c:2]1[c-:3][n:4]([H:10])[c:5]([H:11])[n:6]1)([H:7])([H:8])[H:9]"
N        1.83898143       0.23333303      -0.13692835
C        0.46573636      -0.06127829       0.20331523
C       -0.29906281       0.92064497      -0.35012476
N       -1.55140464       0.35260138      -0.22161500
C       -1.43125580      -0.85320454       0.40849750
N       -0.17725832      -1.17815860       0.62507569
H        2.30152275      -0.47090073      -0.70111506
H        2.42428522       0.47634344       0.65427113
H        1.13572484       1.24960635      -0.69714332
H       -2.42115109       0.77055996      -0.49754588
H       -2.28611793      -1.43954697       0.71331281
11
Frame=5 idx=000085 GeodesicLength=0.21836062937920658 rxn_smarts="[N:1]([c:2]1[c:3]([H:9])[n:4]([H:10])[c:5]([H:11])[n:6]1)([H:7])[H:8]>>[N+:1]([c:2]1[c-:3][n:4]([H:10])[c:5]([H:11])[n:6]1)([H:7])([H:8])[H:9]"
N        1.83715719       0.22986527      -0.14087305
C        0.46738525      -0.04970450       0.22437281
C       -0.30012943       0.93275055      -0.32840567
N       -1.54931470       0.35263776      -0.22031831
C       -1.42826161      -0.85536223       0.40358960
N       -0.17342251      -1.17856199       0.61724206
H        2.28691268      -0.49596711      -0.68774186
H        2.43093864       0.48296462       0.64069412
H        1.12870532       1.25963023      -0.70841135
H       -2.41797265       0.76665685      -0.50534686
H       -2.28199819      -1.44490944       0.70519851
11
Frame=6 idx=000085 GeodesicLength=0.2618842558248785 rxn_smarts="[N:1]([c:2]1[c:3]([H:9])[n:4]([H:10])[c:5]([H:11])[n:6]1)([H:7])[H:8]>>[N+:1]([c:2]1[c-:3][n:4]([H:10])[c:5]([H:11])[n:6]1)([H:7])([H:8])[H:9]"
N        1.83529023       0.22617318      -0.14469013
C        0.46913378      -0.03972522       0.24298441
C       -0.30104464       0.94344336      -0.30893586
N       -1.54726678       0.35309333      -0.21829244
C       -1.42532171      -0.85726145       0.39902584
N       -0.16959838      -1.17896135       0.60919078
H        2.27404736      -0.51986275      -0.67299733
H        2.43613822       0.48984788       0.62783770
H        1.12129843       1.26946764      -0.71998930
H       -2.41475408       0.76397324      -0.51119040
H       -2.27792243      -1.45018786       0.69705671
11
Frame=7 idx=000085 GeodesicLength=0.3054077488107642 rxn_smarts="[N:1]([c:2]1[c:3]([H:9])[n:4]([H:10])[c:5]([H:11])[n:6]1)([H:7])[H:8]>>[N+:1]([c:2]1[c-:3][n:4]([H:10])[c:5]([H:11])[n:6]1)([H:7])([H:8])[H:9]"
N        1.83331278       0.22211978      -0.14874158
C        0.47102545      -0.03075392       0.26025468
C       -0.30180870       0.95348277      -0.29020096
N       -1.54524642       0.35422719      -0.21491820
C       -1.42243112      -0.85861745       0.39545842
N       -0.16584237      -1.17890048       0.60203186
H        2.26194832      -0.54303806      -0.65770555
H        2.44071810       0.49659668       0.61477200
H        1.11341469       1.27936490      -0.73154396
H       -2.41121758       0.76152338      -0.51709521
H       -2.27387315      -1.45600479       0.68768850
11
Frame=8 idx=000085 GeodesicLength=0.3489628666018212 rxn_smarts="[N:1]([c:2]1[c:3]([H:9])[n:4]([H:10])[c:5]([H:11])[n:6]1)([H:7])[H:8]>>[N+:1]([c:2]1[c-:3][n:4]([H:10])[c:5]([H:11])[n:6]1)([H:7])([H:8])[H:9]"
N        1.83109708       0.21760197      -0.15330727
C        0.47313175      -0.02239694       0.27692853
C       -0.30243868       0.96339743      -0.27107686
N       -1.54324925       0.35625302      -0.20962740
C       -1.41959269      -0.85912280       0.39362271
N       -0.16217344      -1.17811252       0.59646488
H        2.24980287      -0.56572873      -0.64253172
H        2.44519624       0.50280748       0.60078271
H        1.10491681       1.28960007      -0.74268430
H       -2.40689068       0.75841806      -0.52482084
H       -2.26980001      -1.46271705       0.67624957
11
Frame=9 idx=000085 GeodesicLength=0.39250355222264754 rxn_smarts="[N:1]([c:2]1[c:3]([H:9])[n:4]([H:10])[c:5]([H:11])[n:6]1)([H:7])[H:8]>>[N+:1]([c:2]1[c-:3][n:4]([H:10])[c:5]([H:11])[n:6]1)([H:7])([H:8])[H:9]"
N        1.82886118       0.21286561      -0.15780975
C        0.47531815      -0.01503691       0.29221179
C       -0.30291576       0.97241184      -0.25324651
N       -1.54127234       0.35824311      -0.20435720
C       -1.41682631      -0.85968819       0.39163228
N       -0.15859037      -1.17749551       0.59058736
H        2.23885481      -0.58754750      -0.62639730
H        2.44882060       0.50912205       0.58708971
H        1.09607671       1.29997307      -0.75378928
H       -2.40250109       0.75615061      -0.53126410
H       -2.26582558      -1.46899818       0.66534300
11
Frame=10 idx=000085 GeodesicLength=0.4360526926694895 rxn_smarts="[N:1]([c:2]1[c:3]([H:9])[n:4]([H:10])[c:5]([H:11])[n:6]1)([H:7])[H:8]>>[N+:1]([c:2]1[c-:3][n:4]([H:10])[c:5]([H:11])[n:6]1)([H:7])([H:8])[H:9]"
N        1.82653215       0.20781272      -0.16245465
C        0.47761242      -0.00834261       0.30668268
C       -0.30326932       0.98091559      -0.23596499
N       -1.53930835       0.36037149      -0.19873281
C       -1.41412788      -0.86007640       0.39000249
N       -0.15510703      -1.17673940       0.58511394
H        2.22854677      -0.60877103      -0.60967928
H        2.45200995       0.51534907       0.57314483
H        1.08681342       1.31057027      -0.76474924
H       -2.39781427       0.75418981      -0.53738835
H       -2.26188786      -1.47527952       0.65402537
11
Frame=11 idx=000085 GeodesicLength=0.47961143108358045 rxn_smarts="[N:1]([c:2]1[c:3]([H:9])[n:4]([H:10])[c:5]([H:11])[n:6]1)([H:7])[H:8]>>[N+:1]([c:2]1[c-:3][n:4]([H:10])[c:5]([H:11])[n:6]1)([H:7])([H:8])[H:9]"
N        1.82405442       0.20237803      -0.16736634
C        0.48004979      -0.00214097       0.32070451
C       -0.30347754       0.98910997      -0.21878933
N       -1.53738976       0.36285189      -0.19228287
C       -1.41153222      -0.86009525       0.38914290
N       -0.15174302      -1.17569083       0.58042368
H        2.21862645      -0.62955910      -0.59253668
H        2.45497418       0.52143537       0.55857394
H        1.07704104       1.32136526      -0.77560438
H       -2.39267110       0.75222892      -0.54384814
H       -2.25793224      -1.48188329       0.64158271
11
Frame=12 idx=000085 GeodesicLength=0.5232187463825099 rxn_smarts="[N:1]([c:2]1[c:3]([H:9])[n:4]([H:10])[c:5]([H:11])[n:6]1)([H:7])[H:8]>>[N+:1]([c:2]1[c-:3][n:4]([H:10])[c:5]([H:11])[n:6]1)([H:7])([H:8])[H:9]"
N        1.82127104       0.19642754      -0.17281763
C        0.48272912       0.00377376       0.33454235
C       -0.30351341       0.99730810      -0.20110905
N       -1.53555194       0.36620411      -0.18374010
C       -1.40904390      -0.85910291       0.39060399
N       -0.14852462      -1.17404080       0.57729398
H        2.20840916      -0.65015043      -0.57533745
H        2.45787625       0.52717740       0.54276570
H        1.06657916       1.33243261      -0.78631678
H       -2.38643831       0.74953350      -0.55212494
H       -2.25379255      -1.48956288       0.62623992
11
Frame=13 idx=000085 GeodesicLength=0.5668349958537747 rxn_smarts="[N:1]([c:2]1[c:3]([H:9])[n:4]([H:10])[c:5]([H:11])[n:6]1)([H:7])[H:8]>>[N+:1]([c:2]1[c-:3][n:4]([H:10])[c:5]([H:11])[n:6]1)([H:7])([H:8])[H:9]"
N        1.81839139       0.19008403      -0.17835006
C        0.48550037       0.00931780       0.34792205
C       -0.30340330       1.00500641      -0.18417659
N       -1.53370673       0.36946821      -0.17530134
C       -1.40665864      -0.85791465       0.39251620
N       -0.14543309      -1.17217281       0.57482141
H        2.19889068      -0.67041407      -0.55711265
H        2.46039429       0.53311054       0.52649344
H        1.05567200       1.34341704      -0.79737830
H       -2.38013450       0.74756525      -0.55899808
H       -2.24951247      -1.49746775       0.60956391
11
Frame=14 idx=000085 GeodesicLength=0.6104621250353005 rxn_smarts="[N:1]([c:2]1[c:3]([H:9])[n:4]([H:10])[c:5]([H:11])[n:6]1)([H:7])[H:8]>>[N+:1]([c:2]1[c-:3][n:4]([H:10])[c:5]([H:11])[n:6]1)([H:7])([H:8])[H:9]"
N        1.81544798       0.18337517      -0.18389929
C        0.48836128       0.01440630       0.36069251
C       -0.30313976       1.01219492      -0.16802270
N       -1.53185501       0.37261215      -0.16700725
C       -1.40438411      -0.85664542       0.39470663
N       -0.14246399      -1.17029385       0.57256830
H        2.19012374      -0.69019054      -0.53792245
H        2.46244601       0.53911682       0.50993934
H        1.04438418       1.35447529      -0.80860794
H       -2.37380799       0.74620509      -0.56468365
H       -2.24511233      -1.50525593       0.59223651
11
Frame=15 idx=000085 GeodesicLength=0.6540764338966883 rxn_smarts="[N:1]([c:2]1[c:3]([H:9])[n:4]([H:10])[c:5]([H:11])[n:6]1)([H:7])[H:8]>>[N+:1]([c:2]1[c-:3][n:4]([H:10])[c:5]([H:11])[n:6]1)([H:7])([H:8])[H:9]"
N        1.81248730       0.17635202      -0.18935784
C        0.49126505       0.01892850       0.37276090
C       -0.30274973       1.01881837      -0.15265891
N       -1.52997168       0.37548849      -0.15918482
C       -1.40219897      -0.85555982       0.39658385
N       -0.13960694      -1.16863602       0.57002216
H        2.18220833      -0.70928665      -0.51788201
H        2.46397071       0.54509542       0.49336457
H        1.03278313       1.36577573      -0.81975410
H       -2.36755372       0.74543359      -0.56927579
H       -2.24063347      -1.51240962       0.57538199
11
Frame=16 idx=000085 GeodesicLength=0.6976936674229063 rxn_smarts="[N:1]([c:2]1[c:3]([H:9])[n:4]([H:10])[c:5]([H:11])[n:6]1)([H:7])[H:8]>>[N+:1]([c:2]1[c-:3][n:4]([H:10])[c:5]([H:11])[n:6]1)([H:7])([H:8])[H:9]"
N        1.80948275       0.16896127      -0.19479586
C        0.49423850       0.02298681       0.38428531
C       -0.30221236       1.02499052      -0.13790203
N       -1.52805145       0.37823398      -0.15155347
C       -1.40007999      -0.85455057       0.39837049
N       -0.13684932      -1.16709416       0.56743175
H        2.17501590      -0.72780867      -0.49700557
H        2.46505757       0.55103857       0.47653851
H        1.02082047       1.37730685      -0.83086361
H       -2.36129936       0.74512055      -0.57304729
H       -2.23612272      -1.51918514       0.55854176
