12
Frame=0 idx=001062 GeodesicLength=0.0 rxn_smarts="[N:1]([c:2]1[c:3]([H:9])[c:4]([H:10])[c:5]([H:11])[n:6]1[H:12])([H:7])[H:8]>>[N:1]([C:2](=[C:3]=[C:4](/[C:5](=[N:6]/[H:12])[H:11])[H:10])[H:9])([H:7])[H:8]"
N        1.97132138       0.08583745       0.39268232
C        0.61815439       0.16667307      -0.00531440
C       -0.24751402       1.32795882       0.08602353
C       -1.54682217       0.71816076       0.02323301
C       -1.45109396      -0.64920960       0.03282724
N       -0.15344025      -1.01293251       0.03749614
H        2.59496030      -0.21415568      -0.34178049
H        2.27073717       0.98286970       0.74505073
H        0.44725155       0.68304661      -1.06925351
H       -2.48092457       1.25948958      -0.00179524
H       -2.22937922      -1.40040355      -0.00588040
H        0.20674935      -1.94733465       0.10671107
12
Frame=1 idx=001062 GeodesicLength=0.11870658703827111 rxn_smarts="[N:1]([c:2]1[c:3]([H:9])[c:4]([H:10])[c:5]([H:11])[n:6]1[H:12])([H:7])[H:8]>>[N:1]([C:2](=[C:3]=[C:4](/[C:5](=[N:6]/[H:12])[H:11])[H:10])[H:9])([H:7])[H:8]"
N        1.97848741       0.09028927       0.39093214
C        0.62959404       0.16993870      -0.01967124
C       -0.24539472       1.31504747       0.07212787
C       -1.54454131       0.71415467       0.01902848
C       -1.45772769      -0.65738322       0.02388861
N       -0.16429402      -1.02981931       0.01893837
H        2.61338516      -0.18138321      -0.34479004
H        2.26724141       0.97603336       0.77869244
H        0.46379207       0.70950925      -1.08879119
H       -2.47575631       1.26074647       0.00035156
H       -2.24600331      -1.39910423       0.03715249
H        0.18121728      -1.96802924       0.11214050
12
Frame=2 idx=001062 GeodesicLength=0.23738378185637277 rxn_smarts="[N:1]([c:2]1[c:3]([H:9])[c:4]([H:10])[c:5]([H:11])[n:6]1[H:12])([H:7])[H:8]>>[N:1]([C:2](=[C:3]=[C:4](/[C:5](=[N:6]/[H:12])[H:11])[H:10])[H:9])([H:7])[H:8]"
N        1.98577326       0.09503255       0.38887550
C        0.64128277       0.17309995      -0.03438167
C       -0.24320171       1.30169367       0.05740095
C       -1.54211801       0.70978871       0.01472008
C       -1.46472291      -0.66591330       0.01615267
N       -0.17571232      -1.04741967       0.00188017
H        2.63186988      -0.14748811      -0.34716971
H        2.26292513       0.96820747       0.81176655
H        0.48048961       0.73669559      -1.10822731
H       -2.47027388       1.26180489       0.00255665
H       -2.26112183      -1.39651410       0.07952577
H        0.15481002      -1.98898765       0.11690035
12
Frame=3 idx=001062 GeodesicLength=0.3560573229228344 rxn_smarts="[N:1]([c:2]1[c:3]([H:9])[c:4]([H:10])[c:5]([H:11])[n:6]1[H:12])([H:7])[H:8]>>[N:1]([C:2](=[C:3]=[C:4](/[C:5](=[N:6]/[H:12])[H:11])[H:10])[H:9])([H:7])[H:8]"
N        1.99324625       0.10013717       0.38641616
C        0.65326763       0.17615606      -0.04950484
C       -0.24089347       1.28788196       0.04177300
C       -1.53952320       0.70510196       0.01032160
C       -1.47205276      -0.67474883       0.01031051
N       -0.18771748      -1.06575927      -0.01335230
H        2.65040951      -0.11240948      -0.34898626
H        2.25785728       0.95944604       0.84408763
H        0.49731141       0.76462773      -1.12758152
H       -2.46442766       1.26272900       0.00503257
H       -2.27505858      -1.39282544       0.12013113
H        0.12758108      -2.01033690       0.12135233
12
Frame=4 idx=001062 GeodesicLength=0.47471402754203523 rxn_smarts="[N:1]([c:2]1[c:3]([H:9])[c:4]([H:10])[c:5]([H:11])[n:6]1[H:12])([H:7])[H:8]>>[N:1]([C:2](=[C:3]=[C:4](/[C:5](=[N:6]/[H:12])[H:11])[H:10])[H:9])([H:7])[H:8]"
N        2.00095924       0.10569134       0.38348727
C        0.66560201       0.17911482      -0.06509729
C       -0.23842372       1.27358295       0.02522441
C       -1.53671242       0.70011780       0.00587924
C       -1.47964215      -0.68383976       0.00673522
N       -0.20030702      -1.08486033      -0.02645027
H        2.66897278      -0.07617178      -0.35024852
H        2.25216236       0.94988535       0.87536589
H        0.51425727       0.79340747      -1.14682435
H       -2.45815076       1.26356220       0.00803278
H       -2.28827231      -1.38830112       0.15800834
H        0.09955471      -2.03218895       0.12588728
12
Frame=5 idx=001062 GeodesicLength=0.593359954409151 rxn_smarts="[N:1]([c:2]1[c:3]([H:9])[c:4]([H:10])[c:5]([H:11])[n:6]1[H:12])([H:7])[H:8]>>[N:1]([C:2](=[C:3]=[C:4](/[C:5](=[N:6]/[H:12])[H:11])[H:10])[H:9])([H:7])[H:8]"
N        2.00888142       0.11161378       0.38012805
C        0.67832223       0.18198623      -0.08133662
C       -0.23581638       1.25872091       0.00788367
C       -1.53368854       0.69480352       0.00110943
C       -1.48747307      -0.69319546       0.00487018
N       -0.21349053      -1.10476888      -0.03794565
H        2.68757435      -0.03868918      -0.35083860
H        2.24576300       0.93932067       0.90578965
H        0.53152007       0.82361679      -1.16580323
H       -2.45140139       1.26428987       0.01121396
H       -2.30091669      -1.38306525       0.19458688
H        0.07072554      -2.05463301       0.13034228
12
Frame=6 idx=001062 GeodesicLength=0.711993712611549 rxn_smarts="[N:1]([c:2]1[c:3]([H:9])[c:4]([H:10])[c:5]([H:11])[n:6]1[H:12])([H:7])[H:8]>>[N:1]([C:2](=[C:3]=[C:4](/[C:5](=[N:6]/[H:12])[H:11])[H:10])[H:9])([H:7])[H:8]"
N        2.01702589       0.11796734       0.37629746
C        0.69147958       0.18477263      -0.09833978
C       -0.23303818       1.24323555      -0.01033069
C       -1.53042442       0.68913150      -0.00404392
C       -1.49549204      -0.70281043       0.00462124
N       -0.22725883      -1.12552170      -0.04767106
H        2.70617992      -0.00002859      -0.35068939
H        2.23873221       0.92786202       0.93511372
H        0.54915941       0.85548260      -1.18442615
H       -2.44412279       1.26491195       0.01494689
H       -2.31328244      -1.37726378       0.22939074
H        0.04104169      -2.07773909       0.13513095
12
Frame=7 idx=001062 GeodesicLength=0.8306124328060975 rxn_smarts="[N:1]([c:2]1[c:3]([H:9])[c:4]([H:10])[c:5]([H:11])[n:6]1[H:12])([H:7])[H:8]>>[N:1]([C:2](=[C:3]=[C:4](/[C:5](=[N:6]/[H:12])[H:11])[H:10])[H:9])([H:7])[H:8]"
N        2.02536940       0.12470408       0.37197155
C        0.70511010       0.18747297      -0.11628128
C       -0.23010180       1.22704429      -0.02941698
C       -1.52691655       0.68304949      -0.00974478
C       -1.50368257      -0.71270385       0.00568281
N       -0.24161914      -1.14716928      -0.05585650
H        2.72476511       0.03986624      -0.34973849
H        2.23101129       0.91536034       0.96338118
H        0.56727875       0.88946650      -1.20249502
H       -2.43624595       1.26540229       0.01907337
H       -2.32542899      -1.37092911       0.26309753
H        0.01046035      -2.10156395       0.14032662
12
Frame=8 idx=001062 GeodesicLength=0.9492322744317764 rxn_smarts="[N:1]([c:2]1[c:3]([H:9])[c:4]([H:10])[c:5]([H:11])[n:6]1[H:12])([H:7])[H:8]>>[N:1]([C:2](=[C:3]=[C:4](/[C:5](=[N:6]/[H:12])[H:11])[H:10])[H:9])([H:7])[H:8]"
N        2.03387117       0.13184887       0.36716652
C        0.71926855       0.19007912      -0.13536645
C       -0.22698222       1.21005205      -0.04962163
C       -1.52316809       0.67649299      -0.01629672
C       -1.51202643      -0.72289806       0.00786821
N       -0.25656858      -1.16976229      -0.06253728
H        2.74332075       0.08098993      -0.34779420
H        2.22251345       0.90182100       0.99053188
H        0.58602698       0.92586876      -1.21987803
H       -2.42770631       1.26574335       0.02394335
H       -2.33744327      -1.36406001       0.29598207
H       -0.02110600      -2.12617571       0.14600230
12
Frame=9 idx=001062 GeodesicLength=1.0677965793557973 rxn_smarts="[N:1]([c:2]1[c:3]([H:9])[c:4]([H:10])[c:5]([H:11])[n:6]1[H:12])([H:7])[H:8]>>[N:1]([C:2](=[C:3]=[C:4](/[C:5](=[N:6]/[H:12])[H:11])[H:10])[H:9])([H:7])[H:8]"
N        2.04249933       0.13928664       0.36173427
C        0.73396531       0.19260137      -0.15573067
C       -0.22370613       1.19218485      -0.07077309
C       -1.51911852       0.66941371      -0.02348240
C       -1.52047051      -0.73339989       0.01121249
N       -0.27213322      -1.19334666      -0.06786725
H        2.76169426       0.12348701      -0.34497711
H        2.21319140       0.88687514       1.01660181
H        0.60531019       0.96526540      -1.23609564
H       -2.41836992       1.26589086       0.02852680
H       -2.34918658      -1.35662590       0.32873905
H       -0.05367562      -2.15163254       0.15211175
12
Frame=10 idx=001062 GeodesicLength=1.1863374139426754 rxn_smarts="[N:1]([c:2]1[c:3]([H:9])[c:4]([H:10])[c:5]([H:11])[n:6]1[H:12])([H:7])[H:8]>>[N:1]([C:2](=[C:3]=[C:4](/[C:5](=[N:6]/[H:12])[H:11])[H:10])[H:9])([H:7])[H:8]"
N        2.05124599       0.14711373       0.35568979
C        0.74928331       0.19503781      -0.17758633
C       -0.22023696       1.17331910      -0.09329870
C       -1.51478907       0.66173066      -0.03155232
C       -1.52900356      -0.74423185       0.01555303
N       -0.28827860      -1.21796338      -0.07162828
H        2.77988689       0.16718425      -0.34106944
H        2.20304594       0.87074719       1.04127846
H        0.62525126       1.00785947      -1.25093850
H       -2.40817114       1.26583426       0.03363600
H       -2.36087495      -1.34867184       0.36088282
H       -0.08735911      -2.17795941       0.15903347
12
Frame=11 idx=001062 GeodesicLength=1.3048422246786953 rxn_smarts="[N:1]([c:2]1[c:3]([H:9])[c:4]([H:10])[c:5]([H:11])[n:6]1[H:12])([H:7])[H:8]>>[N:1]([C:2](=[C:3]=[C:4](/[C:5](=[N:6]/[H:12])[H:11])[H:10])[H:9])([H:7])[H:8]"
N        2.06004481       0.15528384       0.34896252
C        0.76527398       0.19738716      -0.20117102
C       -0.21656858       1.15333932      -0.11744364
C       -1.51013184       0.65337968      -0.04052351
C       -1.53757416      -0.75539812       0.02094980
N       -0.30501343      -1.24365897      -0.07389203
H        2.79779614       0.21217458      -0.33598154
H        2.19191460       0.85322950       1.06453431
H        0.64584901       1.05406158      -1.26395473
H       -2.39695867       1.26555446       0.03890191
H       -2.37240334      -1.34013149       0.39292782
H       -0.12222853      -2.20522154       0.16669011
12
Frame=12 idx=001062 GeodesicLength=1.4233205086374112 rxn_smarts="[N:1]([c:2]1[c:3]([H:9])[c:4]([H:10])[c:5]([H:11])[n:6]1[H:12])([H:7])[H:8]>>[N:1]([C:2](=[C:3]=[C:4](/[C:5](=[N:6]/[H:12])[H:11])[H:10])[H:9])([H:7])[H:8]"
N        2.06883581       0.16381213       0.34150295
C        0.78201320       0.19965103      -0.22673292
C       -0.21268175       1.13210559      -0.14363461
C       -1.50509169       0.64429710      -0.05037342
C       -1.54612026      -0.76689778       0.02741175
N       -0.32232407      -1.27047680      -0.07457391
H        2.81531742       0.25842261      -0.32957854
H        2.17967366       0.83431434       1.08617993
H        0.66707999       1.10415843      -1.27466663
H       -2.38456108       1.26505166       0.04438623
H       -2.38376677      -1.33097995       0.42486368
H       -0.15837444      -2.23345836       0.17521549
12
Frame=13 idx=001062 GeodesicLength=1.5417707503067735 rxn_smarts="[N:1]([c:2]1[c:3]([H:9])[c:4]([H:10])[c:5]([H:11])[n:6]1[H:12])([H:7])[H:8]>>[N:1]([C:2](=[C:3]=[C:4](/[C:5](=[N:6]/[H:12])[H:11])[H:10])[H:9])([H:7])[H:8]"
N        2.07750562       0.17264615       0.33329579
C        0.79958144       0.20184147      -0.25457412
C       -0.20856924       1.10945852      -0.17239003
C       -1.49958042       0.63442730      -0.06106115
C       -1.55455462      -0.77869133       0.03524727
N       -0.34023194      -1.29845910      -0.07393313
H        2.83231136       0.30609770      -0.32159275
H        2.16599847       0.81368971       1.10626969
H        0.68888177       1.15847065      -1.28244551
H       -2.37083413       1.26432389       0.04931521
H       -2.39462046      -1.32100060       0.45786728
H       -0.19588786      -2.26280436       0.18400143
12
Frame=14 idx=001062 GeodesicLength=1.6601878492618865 rxn_smarts="[N:1]([c:2]1[c:3]([H:9])[c:4]([H:10])[c:5]([H:11])[n:6]1[H:12])([H:7])[H:8]>>[N:1]([C:2](=[C:3]=[C:4](/[C:5](=[N:6]/[H:12])[H:11])[H:10])[H:9])([H:7])[H:8]"
N        2.08594891       0.18188870       0.32434925
C        0.81811361       0.20393864      -0.28500597
C       -0.20420495       1.08515221      -0.20459564
C       -1.49345236       0.62373003      -0.07238129
C       -1.56276536      -0.79073739       0.04439767
N       -0.35870307      -1.32765338      -0.07182923
H        2.84862714       0.35510684      -0.31175718
H        2.15061826       0.79158950       1.12447762
H        0.71113190       1.21695957      -1.28674763
H       -2.35544249       1.26345692       0.05430955
H       -2.40498421      -1.31016695       0.49144578
H       -0.23488738      -2.29326469       0.19333710
12
Frame=15 idx=001062 GeodesicLength=1.7785437817188503 rxn_smarts="[N:1]([c:2]1[c:3]([H:9])[c:4]([H:10])[c:5]([H:11])[n:6]1[H:12])([H:7])[H:8]>>[N:1]([C:2](=[C:3]=[C:4](/[C:5](=[N:6]/[H:12])[H:11])[H:10])[H:9])([H:7])[H:8]"
N        2.09395138       0.19162809       0.31478044
C        0.83777814       0.20589405      -0.31842582
C       -0.19956499       1.05881883      -0.24146440
C       -1.48646751       0.61217287      -0.08417656
C       -1.57059168      -0.80293689       0.05510961
N       -0.37776510      -1.35811870      -0.06857288
H        2.86403604       0.40565245      -0.29952016
H        2.13289411       0.76801598       1.14075986
H        0.73365287       1.27943856      -1.28697769
H       -2.33792047       1.26258138       0.05941369
H       -2.41445618      -1.29820216       0.52643975
H       -0.27554660      -2.32494445       0.20263417
12
Frame=16 idx=001062 GeodesicLength=1.8968345590730231 rxn_smarts="[N:1]([c:2]1[c:3]([H:9])[c:4]([H:10])[c:5]([H:11])[n:6]1[H:12])([H:7])[H:8]>>[N:1]([C:2](=[C:3]=[C:4](/[C:5](=[N:6]/[H:12])[H:11])[H:10])[H:9])([H:7])[H:8]"
N        2.10124296       0.20213575       0.30481075
C        0.85883449       0.20756454      -0.35525712
C       -0.19463122       1.02986868      -0.28476250
C       -1.47821504       0.59980081      -0.09596004
C       -1.57783383      -0.81519629       0.06723015
N       -0.39738939      -1.38997179      -0.06417484
H        2.87823534       0.45777297      -0.28428057
H        2.11202837       0.74362949       1.15481721
H        0.75610499       1.34526305      -1.28274814
H       -2.31731863       1.26205989       0.06611684
H       -2.42298878      -1.28502116       0.56222217
H       -0.31806926      -2.35790595       0.21198610
