15
Frame=0 idx=000880 GeodesicLength=0.0 rxn_smarts="[O:1]([C:2]([C:3]([N:4]1[C:5]([H:12])([H:13])[C:6]1([H:14])[H:15])([H:10])[H:11])([H:8])[H:9])[H:7]>>[C:2]([C:3]([N:4]1[C:5]([H:12])([H:13])[C:6]1([H:14])[H:15])([H:10])[H:11])[H:9].[O:1]([H:7])[H:8]"
O       -2.43713056      -0.29563532      -0.41825413
C       -1.39539523      -0.50093115       1.04712348
C       -0.31654473       0.49089314       0.76447606
N        0.29357520       0.22482675      -0.53220704
C        1.65754291       0.67082412      -0.72521281
C        1.34740757      -0.76867492      -0.56015232
H       -1.73951929      -0.01346755      -1.03783497
H       -2.05782716      -1.20196683      -0.05312102
H       -2.08352408      -0.11801403       1.80436560
H       -0.66260423       1.53304714       0.74556844
H        0.40060428       0.39763539       1.59923884
H        1.89366558       1.07140217      -1.70361367
H        2.13697439       1.17731920       0.10721664
H        1.60744595      -1.23987422       0.38212358
H        1.35532938      -1.42738392      -1.41971669
15
Frame=1 idx=000880 GeodesicLength=0.06058187501274352 rxn_smarts="[O:1]([C:2]([C:3]([N:4]1[C:5]([H:12])([H:13])[C:6]1([H:14])[H:15])([H:10])[H:11])([H:8])[H:9])[H:7]>>[C:2]([C:3]([N:4]1[C:5]([H:12])([H:13])[C:6]1([H:14])[H:15])([H:10])[H:11])[H:9].[O:1]([H:7])[H:8]"
O       -2.42965978      -0.29596570      -0.41255023
C       -1.40328232      -0.49423565       1.04137376
C       -0.31689966       0.49232734       0.76481169
N        0.29289769       0.22680271      -0.53230662
C        1.65731384       0.67097971      -0.72544660
C        1.34523384      -0.76825092      -0.56157685
H       -1.73485745      -0.01088459      -1.03443177
H       -2.05005682      -1.21865559      -0.04996511
H       -2.08907571      -0.11273118       1.80138690
H       -0.65936200       1.53563775       0.74710868
H        0.39930734       0.39353344       1.59943344
H        1.89367533       1.07211716      -1.70356842
H        2.13767233       1.17610675       0.10727228
H        1.60501060      -1.24060180       0.38021520
H        1.35208277      -1.42617943      -1.42175635
15
Frame=2 idx=000880 GeodesicLength=0.12115142527085376 rxn_smarts="[O:1]([C:2]([C:3]([N:4]1[C:5]([H:12])([H:13])[C:6]1([H:14])[H:15])([H:10])[H:11])([H:8])[H:9])[H:7]>>[C:2]([C:3]([N:4]1[C:5]([H:12])([H:13])[C:6]1([H:14])[H:15])([H:10])[H:11])[H:9].[O:1]([H:7])[H:8]"
O       -2.42233508      -0.29607590      -0.40708581
C       -1.41109121      -0.48764160       1.03559111
C       -0.31726739       0.49366090       0.76513855
N        0.29222937       0.22869951      -0.53240921
C        1.65706184       0.67114653      -0.72568974
C        1.34313493      -0.76783139      -0.56299381
H       -1.73017480      -0.00830701      -1.03115055
H       -2.04234044      -1.23506917      -0.04627826
H       -2.09462635      -0.10755576       1.79829516
H       -0.65615050       1.53810745       0.74866090
H        0.39797612       0.38936677       1.59960548
H        1.89363623       1.07284773      -1.70353661
H        2.13831195       1.17494436       0.10731240
H        1.60267864      -1.24130457       0.37831971
H        1.34895671      -1.42498786      -1.42377931
15
Frame=3 idx=000880 GeodesicLength=0.1817124084997452 rxn_smarts="[O:1]([C:2]([C:3]([N:4]1[C:5]([H:12])([H:13])[C:6]1([H:14])[H:15])([H:10])[H:11])([H:8])[H:9])[H:7]>>[C:2]([C:3]([N:4]1[C:5]([H:12])([H:13])[C:6]1([H:14])[H:15])([H:10])[H:11])[H:9].[O:1]([H:7])[H:8]"
O       -2.41516486      -0.29593881      -0.40185146
C       -1.41882447      -0.48115363       1.02976631
C       -0.31764842       0.49488968       0.76545391
N        0.29157053       0.23050968      -0.53251632
C        1.65678517       0.67132408      -0.72594553
C        1.34111755      -0.76741758      -0.56439739
H       -1.72548058      -0.00570703      -1.02798869
H       -2.03468456      -1.25122541      -0.04207034
H       -2.10017004      -0.10250194       1.79509455
H       -0.65296796       1.54045236       0.75022418
H        0.39660894       0.38513324       1.59975341
H        1.89354557       1.07358770      -1.70352381
H        2.13888827       1.17383973       0.10733038
H        1.60046145      -1.24197553       0.37644547
H        1.34596340      -1.42381655      -1.42577466
15
Frame=4 idx=000880 GeodesicLength=0.24226039511960007 rxn_smarts="[O:1]([C:2]([C:3]([N:4]1[C:5]([H:12])([H:13])[C:6]1([H:14])[H:15])([H:10])[H:11])([H:8])[H:9])[H:7]>>[C:2]([C:3]([N:4]1[C:5]([H:12])([H:13])[C:6]1([H:14])[H:15])([H:10])[H:11])[H:9].[O:1]([H:7])[H:8]"
O       -2.40813725      -0.29558841      -0.39684454
C       -1.42648013      -0.47475867       1.02390562
C       -0.31804477       0.49603073       0.76575665
N        0.29091979       0.23225643      -0.53263015
C        1.65649212       0.67151168      -0.72620401
C        1.33916102      -0.76700765      -0.56580206
H       -1.72076844      -0.00309866      -1.02494579
H       -2.02704450      -1.26717173      -0.03732369
H       -2.10571429      -0.09754460       1.79177821
H       -0.64981966       1.54268926       0.75179606
H        0.39520659       0.38084864       1.59987513
H        1.89342497       1.07434709      -1.70351270
H        2.13941690       1.17276978       0.10734637
H        1.59831846      -1.24263410       0.37457345
H        1.34306918      -1.42264979      -1.42776855
15
Frame=5 idx=000880 GeodesicLength=0.30280006687932587 rxn_smarts="[O:1]([C:2]([C:3]([N:4]1[C:5]([H:12])([H:13])[C:6]1([H:14])[H:15])([H:10])[H:11])([H:8])[H:9])[H:7]>>[C:2]([C:3]([N:4]1[C:5]([H:12])([H:13])[C:6]1([H:14])[H:15])([H:10])[H:11])[H:9].[O:1]([H:7])[H:8]"
O       -2.40126475      -0.29498816      -0.39206004
C       -1.43406527      -0.46846187       1.01799751
C       -0.31845570       0.49707395       0.76604780
N        0.29027750       0.23392694      -0.53274948
C        1.65617716       0.67171024      -0.72647280
C        1.33727721      -0.76660233      -0.56719770
H       -1.71604769      -0.00045084      -1.02202130
H       -2.01943393      -1.28291455      -0.03204915
H       -2.11125857      -0.09270031       1.78834805
H       -0.64669879       1.54480985       0.75338335
H        0.39376698       0.37649782       1.59997344
H        1.89326388       1.07511317      -1.70351774
H        2.13988892       1.17175086       0.10734526
H        1.59627897      -1.24326677       0.37271592
H        1.34029409      -1.42149800      -1.42974313
15
Frame=6 idx=000880 GeodesicLength=0.36332728872614134 rxn_smarts="[O:1]([C:2]([C:3]([N:4]1[C:5]([H:12])([H:13])[C:6]1([H:14])[H:15])([H:10])[H:11])([H:8])[H:9])[H:7]>>[C:2]([C:3]([N:4]1[C:5]([H:12])([H:13])[C:6]1([H:14])[H:15])([H:10])[H:11])[H:9].[O:1]([H:7])[H:8]"
O       -2.39453902      -0.29415973      -0.38749626
C       -1.44158199      -0.46225390       1.01204430
C       -0.31888237       0.49802813       0.76632575
N        0.28964343       0.23553383      -0.53287583
C        1.65584644       0.67191881      -0.72674531
C        1.33545486      -0.76620111      -0.56859431
H       -1.71131441       0.00223273      -1.01921422
H       -2.01182093      -1.29848910      -0.02622896
H       -2.11681050      -0.08794685       1.78479635
H       -0.64360658       1.54682307       0.75498337
H        0.39229070       0.37208713       1.60004554
H        1.89307097       1.07589867      -1.70352600
H        2.14031440       1.17076719       0.10734064
H        1.59431834      -1.24388652       0.37085992
H        1.33761665      -1.42035234      -1.43171498
15
Frame=7 idx=000880 GeodesicLength=0.4238401966934179 rxn_smarts="[O:1]([C:2]([C:3]([N:4]1[C:5]([H:12])([H:13])[C:6]1([H:14])[H:15])([H:10])[H:11])([H:8])[H:9])[H:7]>>[C:2]([C:3]([N:4]1[C:5]([H:12])([H:13])[C:6]1([H:14])[H:15])([H:10])[H:11])[H:9].[O:1]([H:7])[H:8]"
O       -2.38797143      -0.29307228      -0.38314805
C       -1.44903323      -0.45614147       1.00603398
C       -0.31932539       0.49888717       0.76658781
N        0.28901795       0.23706721      -0.53301103
C        1.65549710       0.67213721      -0.72702567
C        1.33370305      -0.76580583      -0.56998497
H       -1.70657815       0.00497742      -1.01652491
H       -2.00421645      -1.31389925      -0.01986776
H       -2.12236072      -0.08330442       1.78112953
H       -0.64054108       1.54872371       0.75659603
H        0.39077544       0.36761187       1.60009079
H        1.89284130       1.07669681      -1.70354489
H        2.14068604       1.16982926       0.10732485
H        1.59245191      -1.24448515       0.36901589
H        1.33505367      -1.41922224      -1.43367160
15
Frame=8 idx=000880 GeodesicLength=0.4843318468757618 rxn_smarts="[O:1]([C:2]([C:3]([N:4]1[C:5]([H:12])([H:13])[C:6]1([H:14])[H:15])([H:10])[H:11])([H:8])[H:9])[H:7]>>[C:2]([C:3]([N:4]1[C:5]([H:12])([H:13])[C:6]1([H:14])[H:15])([H:10])[H:11])[H:9].[O:1]([H:7])[H:8]"
O       -2.38157381      -0.29169475      -0.37901176
C       -1.45642209      -0.45013133       0.99995432
C       -0.31978531       0.49964487       0.76683122
N        0.28840148       0.23851713      -0.53315688
C        1.65512647       0.67236548      -0.72731799
C        1.33203113      -0.76541820      -0.57136271
H       -1.70184760       0.00780612      -1.01395483
H       -1.99663510      -1.32914542      -0.01296823
H       -2.12789870      -0.07879523       1.77735511
H       -0.63750027       1.55050648       0.75822117
H        0.38921899       0.36306711       1.60010832
H        1.89257004       1.07750121      -1.70358172
H        2.14099680       1.16894784       0.10729012
H        1.59069535      -1.24505440       0.36719426
H        1.33262261      -1.41811690      -1.43560040
15
Frame=9 idx=000880 GeodesicLength=0.5447829811092622 rxn_smarts="[O:1]([C:2]([C:3]([N:4]1[C:5]([H:12])([H:13])[C:6]1([H:14])[H:15])([H:10])[H:11])([H:8])[H:9])[H:7]>>[C:2]([C:3]([N:4]1[C:5]([H:12])([H:13])[C:6]1([H:14])[H:15])([H:10])[H:11])[H:9].[O:1]([H:7])[H:8]"
O       -2.37535837      -0.28999808      -0.37508665
C       -1.46375116      -0.44423014       0.99379382
C       -0.32026255       0.50029533       0.76705376
N        0.28779445       0.23987397      -0.53331517
C        1.65473186       0.67260390      -0.72762632
C        1.33044848      -0.76504027      -0.57272076
H       -1.69713111       0.01073928      -1.01150700
H       -1.98909362      -1.34422398      -0.00553190
H       -2.13341267      -0.07444246       1.77348191
H       -0.63448236       1.55216705       0.75985914
H        0.38761964       0.35844818       1.60009808
H        1.89225213       1.07830625      -1.70364404
H        2.14123984       1.16813368       0.10722928
H        1.58906427      -1.24558691       0.36540553
H        1.33034118      -1.41704578      -1.43748967
15
Frame=10 idx=000880 GeodesicLength=0.6052751927363299 rxn_smarts="[O:1]([C:2]([C:3]([N:4]1[C:5]([H:12])([H:13])[C:6]1([H:14])[H:15])([H:10])[H:11])([H:8])[H:9])[H:7]>>[C:2]([C:3]([N:4]1[C:5]([H:12])([H:13])[C:6]1([H:14])[H:15])([H:10])[H:11])[H:9].[O:1]([H:7])[H:8]"
O       -2.36932200      -0.28795291      -0.37135294
C       -1.47102598      -0.43843746       0.98754903
C       -0.32075880       0.50083473       0.76725371
N        0.28719315       0.24112748      -0.53348600
C        1.65430735       0.67284880      -0.72795523
C        1.32895794      -0.76467532      -0.57405079
H       -1.69244531       0.01383245      -1.00916398
H       -1.98156641      -1.35918208       0.00239822
H       -2.13890294      -0.07024881       1.76951276
H       -0.63148515       1.55369965       0.76150820
H        0.38597589       0.35375500       1.60005793
H        1.89187824       1.07910004      -1.70373925
H        2.14140801       1.16739334       0.10713186
H        1.58756837      -1.24607502       0.36366059
H        1.32821764      -1.41601989      -1.43932410
15
Frame=11 idx=000880 GeodesicLength=0.6657275520102622 rxn_smarts="[O:1]([C:2]([C:3]([N:4]1[C:5]([H:12])([H:13])[C:6]1([H:14])[H:15])([H:10])[H:11])([H:8])[H:9])[H:7]>>[C:2]([C:3]([N:4]1[C:5]([H:12])([H:13])[C:6]1([H:14])[H:15])([H:10])[H:11])[H:9].[O:1]([H:7])[H:8]"
O       -2.36347243      -0.28557655      -0.36783169
C       -1.47825031      -0.43274730       0.98121388
C       -0.32127357       0.50126615       0.76743273
N        0.28660039       0.24229097      -0.53366998
C        1.65385932       0.67310446      -0.72829960
C        1.32755385      -0.76431964      -0.57536400
H       -1.68777474       0.01704337      -1.00694672
H       -1.97405390      -1.37400347       0.01088542
H       -2.14437387      -0.06620808       1.76544117
H       -0.62850485       1.55511161       0.76317555
H        0.38428720       0.34897881       1.59999048
H        1.89146174       1.07989516      -1.70385866
H        2.14150888       1.16672041       0.10700975
H        1.58619497      -1.24652894       0.36194452
H        1.32623732      -1.41502694      -1.44112285
15
Frame=12 idx=000880 GeodesicLength=0.7261663735837534 rxn_smarts="[O:1]([C:2]([C:3]([N:4]1[C:5]([H:12])([H:13])[C:6]1([H:14])[H:15])([H:10])[H:11])([H:8])[H:9])[H:7]>>[C:2]([C:3]([N:4]1[C:5]([H:12])([H:13])[C:6]1([H:14])[H:15])([H:10])[H:11])[H:9].[O:1]([H:7])[H:8]"
O       -2.35779434      -0.28288214      -0.36452144
C       -1.48542825      -0.42715086       0.97478699
C       -0.32180815       0.50159514       0.76759097
N        0.28601541       0.24337706      -0.53386727
C        1.65339173       0.67337099      -0.72865477
C        1.32622542      -0.76397111      -0.57666953
H       -1.68310936       0.02036870      -1.00485341
H       -1.96652175      -1.38872246       0.01995445
H       -2.14983767      -0.06229664       1.76125239
H       -0.62554098       1.55640734       0.76486399
H        0.38255144       0.34411648       1.59989439
H        1.89100969       1.08069820      -1.70399358
H        2.14154769       1.16610550       0.10687239
H        1.58492305      -1.24695826       0.36024456
H        1.32437607      -1.41405794      -1.44290014
15
Frame=13 idx=000880 GeodesicLength=0.7865827181801314 rxn_smarts="[O:1]([C:2]([C:3]([N:4]1[C:5]([H:12])([H:13])[C:6]1([H:14])[H:15])([H:10])[H:11])([H:8])[H:9])[H:7]>>[C:2]([C:3]([N:4]1[C:5]([H:12])([H:13])[C:6]1([H:14])[H:15])([H:10])[H:11])[H:9].[O:1]([H:7])[H:8]"
O       -2.35228075      -0.27989800      -0.36142910
C       -1.49256433      -0.42163668       0.96827013
C       -0.32236482       0.50183104       0.76772936
N        0.28543626       0.24440283      -0.53407912
C        1.65290903       0.67364866      -0.72901402
C        1.32495656      -0.76362817      -0.57797977
H       -1.67844388       0.02379658      -1.00288901
H       -1.95891902      -1.40336571       0.02964035
H       -2.15530952      -0.05848876       1.75693327
H       -0.62259379       1.55759816       0.76657880
H        0.38076714       0.33916806       1.59977012
H        1.89053674       1.08151797      -1.70413207
H        2.14153589       1.16553002       0.10673504
H        1.58373103      -1.24737527       0.35854396
H        1.32260348      -1.41310074      -1.44467793
15
Frame=14 idx=000880 GeodesicLength=0.8469980313987634 rxn_smarts="[O:1]([C:2]([C:3]([N:4]1[C:5]([H:12])([H:13])[C:6]1([H:14])[H:15])([H:10])[H:11])([H:8])[H:9])[H:7]>>[C:2]([C:3]([N:4]1[C:5]([H:12])([H:13])[C:6]1([H:14])[H:15])([H:10])[H:11])[H:9].[O:1]([H:7])[H:8]"
O       -2.34692796      -0.27662474      -0.35855227
C       -1.49966403      -0.41619897       0.96165660
C       -0.32294575       0.50197462       0.76784386
N        0.28486225       0.24537249      -0.53430639
C        1.65241291       0.67393597      -0.72937431
C        1.32374085      -0.76328838      -0.57929893
H       -1.67377808       0.02733378      -1.00105105
H       -1.95121523      -1.41795413       0.03996949
H       -2.16079651      -0.05477349       1.75247386
H       -0.61965984       1.55868186       0.76831935
H        0.37893003       0.33412823       1.59961064
H        1.89004588       1.08235814      -1.70426630
H        2.14147532       1.16498347       0.10660251
H        1.58260658      -1.24778287       0.35683414
H        1.32091358      -1.41214598      -1.44646120
15
Frame=15 idx=000880 GeodesicLength=0.9074033591392687 rxn_smarts="[O:1]([C:2]([C:3]([N:4]1[C:5]([H:12])([H:13])[C:6]1([H:14])[H:15])([H:10])[H:11])([H:8])[H:9])[H:7]>>[C:2]([C:3]([N:4]1[C:5]([H:12])([H:13])[C:6]1([H:14])[H:15])([H:10])[H:11])[H:9].[O:1]([H:7])[H:8]"
O       -2.34173798      -0.27305700      -0.35589820
C       -1.50673111      -0.41083657       0.95494049
C       -0.32355336       0.50202785       0.76793379
N        0.28429270       0.24628887      -0.53455259
C        1.65190489       0.67423335      -0.72973271
C        1.32257676      -0.76295553      -0.58063272
H       -1.66911252       0.03098094      -0.99934838
H       -1.94339735      -1.43249758       0.05097429
H       -2.16629874      -0.05114852       1.74787263
H       -0.61674391       1.55966471       0.77008751
H        0.37703834       0.32899777       1.59941915
H        1.88953888       1.08322575      -1.70439325
H        2.14136912       1.16446269       0.10648387
H        1.58154481      -1.24819297       0.35511029
H        1.31930947      -1.41119376      -1.44826418
15
Frame=16 idx=000880 GeodesicLength=0.9677987971574108 rxn_smarts="[O:1]([C:2]([C:3]([N:4]1[C:5]([H:12])([H:13])[C:6]1([H:14])[H:15])([H:10])[H:11])([H:8])[H:9])[H:7]>>[C:2]([C:3]([N:4]1[C:5]([H:12])([H:13])[C:6]1([H:14])[H:15])([H:10])[H:11])[H:9].[O:1]([H:7])[H:8]"
O       -2.33670986      -0.26918583      -0.35346685
C       -1.51377029      -0.40554837       0.94811256
C       -0.32419085       0.50198831       0.76799316
N        0.28372865       0.24715309      -0.53481898
C        1.65138689       0.67453910      -0.73008626
C        1.32146051      -0.76262670      -0.58198481
H       -1.66444286       0.03473870      -0.99778192
H       -1.93545213      -1.44699947       0.06269194
H       -2.17181554      -0.04761612       1.74312480
H       -0.61384722       1.56053990       0.77187990
H        0.37508492       0.32377381       1.59918730
H        1.88902172       1.08412361      -1.70450482
H        2.14121800       1.16395970       0.10638120
H        1.58053411      -1.24860694       0.35336460
H        1.31779396      -1.41023278      -1.45009180
