16
Frame=0 idx=007628 GeodesicLength=0.0 rxn_smarts="[C:1]([C@:2]12[C:3]([H:11])([H:12])[C@@:4]1([H:13])[C@@:5]1([H:14])[N:6]([H:15])[C@@:7]21[H:16])([H:8])([H:9])[H:10]>>[C:1]([C@:2]12[C@:4]([C:3]([H:11])([H:12])[H:15])([H:13])[C@@:5]1([H:14])[N:6]=[C:7]2[H:16])([H:8])([H:9])[H:10]"
C        1.46233691      -0.69002579       1.19930579
C        0.32444651      -0.36452758       0.32016006
C        0.26199867       1.06151761      -1.49091873
C       -0.14515705       0.99484558      -0.06802648
C       -1.52062231       0.27137227       0.10407996
N       -1.68446224      -0.63114026      -0.94085823
C       -0.81010247      -1.17402084       0.06186986
H        1.37433216      -0.14728092       2.14594689
H        2.37513073      -0.32598057       0.71988891
H        1.55481617      -1.75783761       1.39682302
H        1.33627721       1.04210302      -1.63882532
H       -0.25244084       1.78011316      -2.12746626
H       -0.01513927       1.80584997       0.66025340
H       -2.28151815       0.49923167       0.83808479
H       -0.97204752      -0.22012664      -1.67685207
H       -1.00784848      -2.14409305       0.49653442
16
Frame=1 idx=007628 GeodesicLength=0.08822596805905249 rxn_smarts="[C:1]([C@:2]12[C:3]([H:11])([H:12])[C@@:4]1([H:13])[C@@:5]1([H:14])[N:6]([H:15])[C@@:7]21[H:16])([H:8])([H:9])[H:10]>>[C:1]([C@:2]12[C@:4]([C:3]([H:11])([H:12])[H:15])([H:13])[C@@:5]1([H:14])[N:6]=[C:7]2[H:16])([H:8])([H:9])[H:10]"
C        1.45755744      -0.68381154       1.19918808
C        0.32240348      -0.35908538       0.31373745
C        0.26567930       1.04156890      -1.48853097
C       -0.15075570       1.00187720      -0.06633781
C       -1.51650579       0.27151926       0.12347675
N       -1.69481235      -0.62564336      -0.93066846
C       -0.81147695      -1.17899018       0.05106925
H        1.36150442      -0.14860412       2.14916290
H        2.37446606      -0.31734252       0.72977566
H        1.55578936      -1.75171120       1.39426894
H        1.34107734       1.04396706      -1.63097442
H       -0.24661884       1.75016600      -2.13780457
H       -0.00584889       1.81598177       0.65374221
H       -2.27303624       0.50220068       0.86089210
H       -0.98160923      -0.20189415      -1.68692172
H       -0.99781340      -2.16019841       0.46592462
16
Frame=2 idx=007628 GeodesicLength=0.17644870100786675 rxn_smarts="[C:1]([C@:2]12[C:3]([H:11])([H:12])[C@@:4]1([H:13])[C@@:5]1([H:14])[N:6]([H:15])[C@@:7]21[H:16])([H:8])([H:9])[H:10]>>[C:1]([C@:2]12[C@:4]([C:3]([H:11])([H:12])[H:15])([H:13])[C@@:5]1([H:14])[N:6]=[C:7]2[H:16])([H:8])([H:9])[H:10]"
C        1.45283763      -0.67769168       1.19916885
C        0.32035254      -0.35366193       0.30759445
C        0.26904980       1.02191537      -1.48588720
C       -0.15631841       1.00878656      -0.06477479
C       -1.51209615       0.27143025       0.14265933
N       -1.70479704      -0.62051206      -0.92037585
C       -0.81297358      -1.18382424       0.04054278
H        1.34907654      -0.14971075       2.15220542
H        2.37375116      -0.30921756       0.73946607
H        1.55648089      -1.74560754       1.39220020
H        1.34500857       1.04555821      -1.62380621
H       -0.24088415       1.72101272      -2.14714319
H        0.00319319       1.82587838       0.64692774
H       -2.26447370       0.50529555       0.88311027
H       -0.99032809      -0.18396020      -1.69703909
H       -0.98787919      -2.17569106       0.43515122
16
Frame=3 idx=007628 GeodesicLength=0.2646703114666282 rxn_smarts="[C:1]([C@:2]12[C:3]([H:11])([H:12])[C@@:4]1([H:13])[C@@:5]1([H:14])[N:6]([H:15])[C@@:7]21[H:16])([H:8])([H:9])[H:10]>>[C:1]([C@:2]12[C@:4]([C:3]([H:11])([H:12])[H:15])([H:13])[C@@:5]1([H:14])[N:6]=[C:7]2[H:16])([H:8])([H:9])[H:10]"
C        1.44818573      -0.67166430       1.19923506
C        0.31829099      -0.34826462       0.30172429
C        0.27210846       1.00257172      -1.48299421
C       -0.16186206       1.01556993      -0.06332402
C       -1.50741320       0.27112058       0.16163514
N       -1.71444088      -0.61574531      -0.90997404
C       -0.81460395      -1.18853490       0.03031434
H        1.33704693      -0.15061156       2.15508523
H        2.37299815      -0.30157584       0.74895068
H        1.55691579      -1.73953586       1.39057497
H        1.34812322       1.04684532      -1.61727865
H       -0.23525115       1.69268210      -2.15552332
H        0.01197447       1.83553689       0.63983236
H       -2.25585455       0.50854111       0.90474424
H       -0.99816469      -0.16636165      -1.70723779
H       -0.97805327      -2.19057362       0.40423571
16
Frame=4 idx=007628 GeodesicLength=0.35289897353039407 rxn_smarts="[C:1]([C@:2]12[C:3]([H:11])([H:12])[C@@:4]1([H:13])[C@@:5]1([H:14])[N:6]([H:15])[C@@:7]21[H:16])([H:8])([H:9])[H:10]>>[C:1]([C@:2]12[C@:4]([C:3]([H:11])([H:12])[H:15])([H:13])[C@@:5]1([H:14])[N:6]=[C:7]2[H:16])([H:8])([H:9])[H:10]"
C        1.44360880      -0.66572937       1.19937637
C        0.31621770      -0.34290133       0.29611726
C        0.27485494       0.98355249      -1.47986500
C       -0.16740252       1.02222667      -0.06197457
C       -1.50247542       0.27060770       0.18041745
N       -1.72377255      -0.61134051      -0.89945257
C       -0.81637811      -1.19313641       0.02040593
H        1.32540259      -0.15132772       2.15782034
H        2.37221821      -0.29437971       0.75823072
H        1.55712375      -1.73350938       1.38934876
H        1.35047366       1.04780671      -1.61135685
H       -0.22973335       1.66519767      -2.16299538
H        0.02048670       1.84495886       0.63247691
H       -2.24719880       0.51196369       0.92580983
H       -1.00508433      -0.14913615      -1.71755712
H       -0.96834127      -2.20485322       0.37319791
16
Frame=5 idx=007628 GeodesicLength=0.44112193103714115 rxn_smarts="[C:1]([C@:2]12[C:3]([H:11])([H:12])[C@@:4]1([H:13])[C@@:5]1([H:14])[N:6]([H:15])[C@@:7]21[H:16])([H:8])([H:9])[H:10]>>[C:1]([C@:2]12[C@:4]([C:3]([H:11])([H:12])[H:15])([H:13])[C@@:5]1([H:14])[N:6]=[C:7]2[H:16])([H:8])([H:9])[H:10]"
C        1.43911321      -0.65987952       1.19957411
C        0.31413223      -0.33757742       0.29075829
C        0.27729028       0.96486070      -1.47649939
C       -0.17295293       1.02874646      -0.06071574
C       -1.49729556       0.26990064       0.19901390
N       -1.73282345      -0.60729401      -0.88879723
C       -0.81830463      -1.19763632       0.01082946
H        1.31412902      -0.15188069       2.16041207
H        2.37142014      -0.28758509       0.76730974
H        1.55713496      -1.72752322       1.38846394
H        1.35210711       1.04841834      -1.60597521
H       -0.22433593       1.63856355      -2.16959092
H        0.02872569       1.85413267       0.62487232
H       -2.23851601       0.51557650       0.94631213
H       -1.01106414      -0.13231526      -1.72802932
H       -0.95876000      -2.21850732       0.34206185
16
Frame=6 idx=007628 GeodesicLength=0.5293550386594431 rxn_smarts="[C:1]([C@:2]12[C:3]([H:11])([H:12])[C@@:4]1([H:13])[C@@:5]1([H:14])[N:6]([H:15])[C@@:7]21[H:16])([H:8])([H:9])[H:10]>>[C:1]([C@:2]12[C@:4]([C:3]([H:11])([H:12])[H:15])([H:13])[C@@:5]1([H:14])[N:6]=[C:7]2[H:16])([H:8])([H:9])[H:10]"
C        1.43468728      -0.65410321       1.19983912
C        0.31203376      -0.33229736       0.28563253
C        0.27941195       0.94648571      -1.47292190
C       -0.17852001       1.03512740      -0.05954920
C       -1.49188152       0.26902730       0.21746647
N       -1.74165068      -0.60357850      -0.87796649
C       -0.82039998      -1.20203593       0.00160015
H        1.30317655      -0.15227849       2.16288844
H        2.37060025      -0.28114097       0.77623089
H        1.55695998      -1.72157222       1.38790475
H        1.35307476       1.04863911      -1.60112109
H       -0.21906842       1.61277644      -2.17537082
H        0.03670960       1.86306431       0.61701146
H       -2.22976950       0.51939639       0.96633783
H       -1.01610766      -0.11592907      -1.73868655
H       -0.94925635      -2.23158091       0.31070441
16
Frame=7 idx=007628 GeodesicLength=0.617609362473956 rxn_smarts="[C:1]([C@:2]12[C:3]([H:11])([H:12])[C@@:4]1([H:13])[C@@:5]1([H:14])[N:6]([H:15])[C@@:7]21[H:16])([H:8])([H:9])[H:10]>>[C:1]([C@:2]12[C@:4]([C:3]([H:11])([H:12])[H:15])([H:13])[C@@:5]1([H:14])[N:6]=[C:7]2[H:16])([H:8])([H:9])[H:10]"
C        1.43033664      -0.64840189       1.20016125
C        0.30992003      -0.32706923       0.28072990
C        0.28122494       0.92843587      -1.46914874
C       -0.18412211       1.04137178      -0.05846729
C       -1.48624861       0.26800046       0.23579198
N       -1.75028523      -0.60019443      -0.86694402
C       -0.82267068      -1.20635505      -0.00726796
H        1.29253481      -0.15253646       2.16526218
H        2.36976681      -0.27502129       0.78498912
H        1.55662605      -1.71567025       1.38763560
H        1.35342570       1.04846585      -1.59674768
H       -0.21392681       1.58785300      -2.18038316
H        0.04442089       1.87176507       0.60890462
H       -2.22097001       0.52343615       0.98591716
H       -1.02019132      -0.10001114      -1.74957922
H       -0.93984110      -2.24406844       0.27914625
16
Frame=8 idx=007628 GeodesicLength=0.7058811699869723 rxn_smarts="[C:1]([C@:2]12[C:3]([H:11])([H:12])[C@@:4]1([H:13])[C@@:5]1([H:14])[N:6]([H:15])[C@@:7]21[H:16])([H:8])([H:9])[H:10]>>[C:1]([C@:2]12[C@:4]([C:3]([H:11])([H:12])[H:15])([H:13])[C@@:5]1([H:14])[N:6]=[C:7]2[H:16])([H:8])([H:9])[H:10]"
C        1.42606465      -0.64276979       1.20052640
C        0.30778564      -0.32189542       0.27604156
C        0.28273396       0.91071047      -1.46518366
C       -0.18977579       1.04747416      -0.05746203
C       -1.48041020       0.26683091       0.25400592
N       -1.75876102      -0.59713699      -0.85570819
C       -0.82512716      -1.21060201      -0.01576364
H        1.28220229      -0.15266129       2.16753134
H        2.36892433      -0.26920251       0.79357647
H        1.55615036      -1.70981348       1.38762267
H        1.35320762       1.04789354      -1.59279853
H       -0.20890695       1.56379601      -2.18465976
H        0.05184828       1.88022980       0.60056200
H       -2.21212098       0.52770024       1.00507127
H       -1.02328972      -0.08460130      -1.76074901
H       -0.93052531      -2.25595234       0.24738719
16
Frame=9 idx=007628 GeodesicLength=0.7941708451983621 rxn_smarts="[C:1]([C@:2]12[C:3]([H:11])([H:12])[C@@:4]1([H:13])[C@@:5]1([H:14])[N:6]([H:15])[C@@:7]21[H:16])([H:8])([H:9])[H:10]>>[C:1]([C@:2]12[C@:4]([C:3]([H:11])([H:12])[H:15])([H:13])[C@@:5]1([H:14])[N:6]=[C:7]2[H:16])([H:8])([H:9])[H:10]"
C        1.42187456      -0.63720285       1.20092210
C        0.30562532      -0.31677903       0.27155874
C        0.28394492       0.89330924      -1.46103365
C       -0.19549842       1.05343121      -0.05652683
C       -1.47437888       0.26552890       0.27212589
N       -1.76711182      -0.59440184      -0.84423673
C       -0.82777809      -1.21478761      -0.02387840
H        1.27217749      -0.15265843       2.16969599
H        2.36807762      -0.26366465       0.80198393
H        1.55554931      -1.70400142       1.38783701
H        1.35246658       1.04692273      -1.58922093
H       -0.20400124       1.54060996      -2.18823453
H        0.05897719       1.88845760       0.59199291
H       -2.20322427       0.53219025       1.02382729
H       -1.02537827      -0.06973796      -1.77224280
H       -0.92132200      -2.26721609       0.21543001
16
Frame=10 idx=007628 GeodesicLength=0.8824796140406496 rxn_smarts="[C:1]([C@:2]12[C:3]([H:11])([H:12])[C@@:4]1([H:13])[C@@:5]1([H:14])[N:6]([H:15])[C@@:7]21[H:16])([H:8])([H:9])[H:10]>>[C:1]([C@:2]12[C@:4]([C:3]([H:11])([H:12])[H:15])([H:13])[C@@:5]1([H:14])[N:6]=[C:7]2[H:16])([H:8])([H:9])[H:10]"
C        1.41776831      -0.63169655       1.20133749
C        0.30343415      -0.31172278       0.26727199
C        0.28486408       0.87622966      -1.45670704
C       -0.20130689       1.05923970      -0.05565709
C       -1.46816497       0.26410413       0.29017171
N       -1.77537241      -0.59198320      -0.83250444
C       -0.83063119      -1.21892196      -0.03160703
H        1.26245504      -0.15253370       2.17175725
H        2.36723034      -0.25838643       0.81020640
H        1.55483831      -1.69823278       1.38825163
H        1.35124611       1.04555438      -1.58596527
H       -0.19919951       1.51829687      -2.19114134
H        0.06579342       1.89644844       0.58320376
H       -2.19427557       0.53690318       1.04221894
H       -1.02643494      -0.05545725      -1.78410904
H       -0.91224429      -2.27784171       0.18327206
16
Frame=11 idx=007628 GeodesicLength=0.9708087961121912 rxn_smarts="[C:1]([C@:2]12[C:3]([H:11])([H:12])[C@@:4]1([H:13])[C@@:5]1([H:14])[N:6]([H:15])[C@@:7]21[H:16])([H:8])([H:9])[H:10]>>[C:1]([C@:2]12[C@:4]([C:3]([H:11])([H:12])[H:15])([H:13])[C@@:5]1([H:14])[N:6]=[C:7]2[H:16])([H:8])([H:9])[H:10]"
C        1.41374775      -0.62624649       1.20176156
C        0.30120661      -0.30672871       0.26317283
C        0.28549813       0.85946854      -1.45221112
C       -0.20721923       1.06489641      -0.05484862
C       -1.46177810       0.26256440       0.30816330
N       -1.78357667      -0.58987591      -0.82048560
C       -0.83369326      -1.22301476      -0.03894716
H        1.25303567      -0.15228560       2.17371272
H        2.36638671      -0.25335547       0.81823267
H        1.55402654      -1.69250540       1.38884762
H        1.34958779       1.04379364      -1.58298112
H       -0.19448872       1.49685892      -2.19341035
H        0.07227903       1.90420288       0.57420028
H       -2.18526928       0.54183120       1.06028105
H       -1.02643592      -0.04179485      -1.79639815
H       -0.90330704      -2.28780881       0.15091009
16
Frame=12 idx=007628 GeodesicLength=1.0591596352716963 rxn_smarts="[C:1]([C@:2]12[C:3]([H:11])([H:12])[C@@:4]1([H:13])[C@@:5]1([H:14])[N:6]([H:15])[C@@:7]21[H:16])([H:8])([H:9])[H:10]>>[C:1]([C@:2]12[C@:4]([C:3]([H:11])([H:12])[H:15])([H:13])[C@@:5]1([H:14])[N:6]=[C:7]2[H:16])([H:8])([H:9])[H:10]"
C        1.40981465      -0.62084826       1.20218312
C        0.29893728      -0.30179860       0.25925247
C        0.28585426       0.84302220      -1.44755305
C       -0.21325384       1.07039786      -0.05409824
C       -1.45522628       0.26091581       0.32612010
N       -1.79175718      -0.58807481      -0.80815431
C       -0.83696970      -1.22707540      -0.04590021
H        1.24392021      -0.15191207       2.17555919
H        2.36555089      -0.24856029       0.82605118
H        1.55312246      -1.68681682       1.38960674
H        1.34753078       1.04164791      -1.58021893
H       -0.18985383       1.47629735      -2.19506992
H        0.07841394       1.91172144       0.56498755
H       -2.17619702       0.54696117       1.07805008
H       -1.02535533      -0.02878445      -1.80916236
H       -0.89453130      -2.29709305       0.11834661
16
Frame=13 idx=007628 GeodesicLength=1.147533587374118 rxn_smarts="[C:1]([C@:2]12[C:3]([H:11])([H:12])[C@@:4]1([H:13])[C@@:5]1([H:14])[N:6]([H:15])[C@@:7]21[H:16])([H:8])([H:9])[H:10]>>[C:1]([C@:2]12[C@:4]([C:3]([H:11])([H:12])[H:15])([H:13])[C@@:5]1([H:14])[N:6]=[C:7]2[H:16])([H:8])([H:9])[H:10]"
C        1.40597026      -0.61549728       1.20259128
C        0.29662088      -0.29693383       0.25550181
C        0.28593966       0.82688628      -1.44274029
C       -0.21942928       1.07574044      -0.05340404
C       -1.44851582       0.25916343       0.34406166
N       -1.79994583      -0.58657435      -0.79548367
C       -0.84046509      -1.23111223      -0.05247091
H        1.23510802      -0.15141124       2.17729337
H        2.36472650      -0.24398903       0.83365152
H        1.55213389      -1.68116415       1.39051112
H        1.34511214       1.03912562      -1.57763109
H       -0.18527809       1.45661233      -2.19614727
H        0.08417669       1.91900495       0.55556937
H       -2.16704649       0.55227517       1.09556566
H       -1.02316500      -0.01645823      -1.82245523
H       -0.88594244      -2.30566787       0.08558671
16
Frame=14 idx=007628 GeodesicLength=1.2359322034144375 rxn_smarts="[C:1]([C@:2]12[C:3]([H:11])([H:12])[C@@:4]1([H:13])[C@@:5]1([H:14])[N:6]([H:15])[C@@:7]21[H:16])([H:8])([H:9])[H:10]>>[C:1]([C@:2]12[C@:4]([C:3]([H:11])([H:12])[H:15])([H:13])[C@@:5]1([H:14])[N:6]=[C:7]2[H:16])([H:8])([H:9])[H:10]"
C        1.40221588      -0.61018910       1.20297451
C        0.29425208      -0.29213547       0.25191154
C        0.28576177       0.81105686      -1.43778001
C       -0.22576477       1.08092033      -0.05276486
C       -1.44165176       0.25731071       0.36200631
N       -1.80817285      -0.58536927      -0.78244722
C       -0.84418294      -1.23513285      -0.05866767
H        1.22659941      -0.15078037       2.17891061
H        2.36391718      -0.23963147       0.84102177
H        1.55106761      -1.67554435       1.39154345
H        1.34236687       1.03623830      -1.57517051
H       -0.18074338       1.43780362      -2.19666766
H        0.08954302       1.92605423       0.54594946
H       -2.15780321       0.55775036       1.11286855
H       -1.01983173      -0.00484697      -1.83633213
H       -0.87757318      -2.31350456       0.05264387
16
Frame=15 idx=007628 GeodesicLength=1.324357035258759 rxn_smarts="[C:1]([C@:2]12[C:3]([H:11])([H:12])[C@@:4]1([H:13])[C@@:5]1([H:14])[N:6]([H:15])[C@@:7]21[H:16])([H:8])([H:9])[H:10]>>[C:1]([C@:2]12[C@:4]([C:3]([H:11])([H:12])[H:15])([H:13])[C@@:5]1([H:14])[N:6]=[C:7]2[H:16])([H:8])([H:9])[H:10]"
C        1.39855233      -0.60491931       1.20332136
C        0.29182570      -0.28740418       0.24847178
C        0.28532791       0.79553040      -1.43267995
C       -0.23227994       1.08593379      -0.05218070
C       -1.43463769       0.25536038       0.37997179
N       -1.81646773      -0.58445384      -0.76901787
C       -0.84812629      -1.23914347      -0.06450220
H        1.21839288      -0.15001778       2.18040626
H        2.36312613      -0.23547649       0.84815125
H        1.54993022      -1.66995440       1.39268600
H        1.33932804       1.03299891      -1.57279249
H       -0.17623083       1.41987028      -2.19665581
H        0.09448695       1.93287069       0.53613065
H       -2.14844892       0.56335951       1.13000284
H       -1.01531707       0.00601964      -1.85084962
H       -0.86946167      -2.32057416       0.01953670
16
Frame=16 idx=007628 GeodesicLength=1.4128111701021981 rxn_smarts="[C:1]([C@:2]12[C:3]([H:11])([H:12])[C@@:4]1([H:13])[C@@:5]1([H:14])[N:6]([H:15])[C@@:7]21[H:16])([H:8])([H:9])[H:10]>>[C:1]([C@:2]12[C@:4]([C:3]([H:11])([H:12])[H:15])([H:13])[C@@:5]1([H:14])[N:6]=[C:7]2[H:16])([H:8])([H:9])[H:10]"
C        1.39498078      -0.59968321       1.20361842
C        0.28933706      -0.28274043       0.24517146
C        0.28464535       0.78030434      -1.42744688
C       -0.23899460       1.09077605      -0.05165199
C       -1.42747505       0.25331299       0.39797272
N       -1.82485646      -0.58382331      -0.75517099
C       -0.85229610      -1.24314945      -0.06999133
H        1.21048769      -0.14912159       2.18177324
H        2.36235624      -0.23151308       0.85502755
H        1.54872836      -1.66439043       1.39391892
H        1.33602590       1.02942540      -1.57045132
H       -0.17172159       1.40281063      -2.19613299
H        0.09897973       1.93945446       0.52611731
H       -2.13896307       0.56906971       1.14701145
H       -1.00957396       0.01611501      -1.86606691
H       -0.86166027      -2.32684710      -0.01369867
