14
Frame=0 idx=005773 GeodesicLength=0.0 rxn_smarts="[O:1]([C@@:2]1([H:8])[C@@:3]2([H:9])[C:4]([H:10])([H:11])[C:5]([H:12])([H:13])[C@@:6]12[H:14])[H:7]>>[O:1]([C@@:2]([C:3]1([H:9])[C:4]([H:10])([H:11])[C:5]1([H:12])[H:13])([C:6][H:14])[H:8])[H:7]"
O        1.65549180      -1.34526170      -0.03031053
C        0.88546185      -0.54967352       0.83442614
C        0.08210065       0.55987801       0.22219168
C       -0.17148505       0.71597303      -1.23642377
C       -1.33175373       0.10630125      -0.54693334
C       -0.47436710      -1.01942176       1.06221601
H        2.46863493      -0.87407816      -0.22740062
H        1.45793301      -0.18786695       1.69072572
H       -0.06059493       1.43675062       0.83729142
H        0.39327451       0.06337622      -1.89068821
H       -0.25596161       1.74125654      -1.57265511
H       -2.14139975       0.76002789      -0.25157396
H       -1.63264735      -0.87919838      -0.84696270
H       -0.87468728      -0.52806308       1.95609722
14
Frame=1 idx=005773 GeodesicLength=0.04468770072321576 rxn_smarts="[O:1]([C@@:2]1([H:8])[C@@:3]2([H:9])[C:4]([H:10])([H:11])[C:5]([H:12])([H:13])[C@@:6]12[H:14])[H:7]>>[O:1]([C@@:2]([C:3]1([H:9])[C:4]([H:10])([H:11])[C:5]1([H:12])[H:13])([C:6][H:14])[H:8])[H:7]"
O        1.64400374      -1.35068361      -0.03412184
C        0.88584168      -0.54916039       0.83468700
C        0.08426048       0.56802468       0.22982169
C       -0.17010435       0.71790807      -1.23028361
C       -1.32934729       0.09615924      -0.54658544
C       -0.47936599      -1.00027510       1.06352353
H        2.45897697      -0.88541380      -0.23740426
H        1.46364395      -0.19322689       1.68972956
H       -0.04885312       1.44785874       0.84278542
H        0.40286768       0.07463003      -1.88678865
H       -0.26699985       1.74189325      -1.56782123
H       -2.14966899       0.74290838      -0.26469353
H       -1.62024774      -0.88945375      -0.85832657
H       -0.87500717      -0.52116885       1.96547793
14
Frame=2 idx=005773 GeodesicLength=0.08938518691608316 rxn_smarts="[O:1]([C@@:2]1([H:8])[C@@:3]2([H:9])[C:4]([H:10])([H:11])[C:5]([H:12])([H:13])[C@@:6]12[H:14])[H:7]>>[O:1]([C@@:2]([C:3]1([H:9])[C:4]([H:10])([H:11])[C:5]1([H:12])[H:13])([C:6][H:14])[H:8])[H:7]"
O        1.63242376      -1.35593294      -0.03788875
C        0.88608315      -0.54865975       0.83491029
C        0.08641094       0.57620303       0.23741738
C       -0.16881738       0.71983417      -1.22415354
C       -1.32690446       0.08605666      -0.54623299
C       -0.48425145      -0.98111959       1.06481680
H        2.44909713      -0.89649963      -0.24733690
H        1.46911271      -0.19867257       1.68872442
H       -0.03654421       1.45901278       0.84818002
H        0.41222899       0.08592986      -1.88284148
H       -0.27801709       1.74237934      -1.56299989
H       -2.15767910       0.72562907      -0.27791698
H       -1.60763281      -0.89962045      -0.86928372
H       -0.87551019      -0.51453999       1.97460534
14
Frame=3 idx=005773 GeodesicLength=0.13408151963506304 rxn_smarts="[O:1]([C@@:2]1([H:8])[C@@:3]2([H:9])[C:4]([H:10])([H:11])[C:5]([H:12])([H:13])[C@@:6]12[H:14])[H:7]>>[O:1]([C@@:2]([C:3]1([H:9])[C:4]([H:10])([H:11])[C:5]1([H:12])[H:13])([C:6][H:14])[H:8])[H:7]"
O        1.62078898      -1.36098449      -0.04161090
C        0.88618875      -0.54817212       0.83509511
C        0.08855890       0.58441031       0.24497124
C       -0.16762903       0.72173550      -1.21804122
C       -1.32444067       0.07600858      -0.54586452
C       -0.48902246      -0.96196938       1.06606756
H        2.43903549      -0.90729431      -0.25716253
H        1.47432168      -0.20420318       1.68772265
H       -0.02365764       1.47019393       0.85346301
H        0.42132975       0.09723206      -1.87885617
H       -0.28899063       1.74270443      -1.55820490
H       -2.16541954       0.70823009      -0.29120960
H       -1.59486238      -0.90967936      -0.87982612
H       -0.87620122      -0.50821206       1.98345638
14
Frame=4 idx=005773 GeodesicLength=0.17878364920355477 rxn_smarts="[O:1]([C@@:2]1([H:8])[C@@:3]2([H:9])[C:4]([H:10])([H:11])[C:5]([H:12])([H:13])[C@@:6]12[H:14])[H:7]>>[O:1]([C@@:2]([C:3]1([H:9])[C:4]([H:10])([H:11])[C:5]1([H:12])[H:13])([C:6][H:14])[H:8])[H:7]"
O        1.60907863      -1.36585724      -0.04528461
C        0.88615507      -0.54769267       0.83524741
C        0.09070777       0.59265322       0.25248600
C       -0.16653943       0.72362351      -1.21193987
C       -1.32194513       0.06600344      -0.54548556
C       -0.49368851      -0.94280478       1.06728946
H        2.42876914      -0.91782249      -0.26691130
H        1.47927942      -0.20981435       1.68672296
H       -0.01017850       1.48139593       0.85862452
H        0.43018736       0.10856504      -1.87482239
H       -0.29994368       1.74288239      -1.55341897
H       -2.17289372       0.69067583      -0.30457965
H       -1.58190134      -0.91964840      -0.88997027
H       -0.87708708      -0.50215941       1.99204228
14
Frame=5 idx=005773 GeodesicLength=0.2234846900959945 rxn_smarts="[O:1]([C@@:2]1([H:8])[C@@:3]2([H:9])[C:4]([H:10])([H:11])[C:5]([H:12])([H:13])[C@@:6]12[H:14])[H:7]>>[O:1]([C@@:2]([C:3]1([H:9])[C:4]([H:10])([H:11])[C:5]1([H:12])[H:13])([C:6][H:14])[H:8])[H:7]"
O        1.59732420      -1.37053202      -0.04891292
C        0.88598378      -0.54722140       0.83536749
C        0.09286575       0.60093206       0.25995537
C       -0.16555091       0.72548696      -1.20585774
C       -1.31943196       0.05605229      -0.54508590
C       -0.49825146      -0.92363704       1.06846129
H        2.41833683      -0.92805202      -0.27655262
H        1.48397196      -0.21550316       1.68573844
H        0.00390131       1.49260190       0.86365365
H        0.43877789       0.11989158      -1.87075434
H       -0.31085677       1.74290957      -1.54865377
H       -2.18009534       0.67299902      -0.31799483
H       -1.56880084      -0.92951524      -0.89971365
H       -0.87817444      -0.49641250       2.00034954
14
Frame=6 idx=005773 GeodesicLength=0.26817787309407204 rxn_smarts="[O:1]([C@@:2]1([H:8])[C@@:3]2([H:9])[C:4]([H:10])([H:11])[C:5]([H:12])([H:13])[C@@:6]12[H:14])[H:7]>>[O:1]([C@@:2]([C:3]1([H:9])[C:4]([H:10])([H:11])[C:5]1([H:12])[H:13])([C:6][H:14])[H:8])[H:7]"
O        1.58555679      -1.37498985      -0.05249237
C        0.88567791      -0.54675744       0.83545322
C        0.09503916       0.60924542       0.26737317
C       -0.16466813       0.72731492      -1.19979971
C       -1.31691411       0.04616682      -0.54465487
C       -0.50270818      -0.90447313       1.06955941
H        2.40777746      -0.93795584      -0.28604604
H        1.48838626      -0.22126808       1.68477438
H        0.01858004       1.50378970       0.86853737
H        0.44707630       0.13117312      -1.86666164
H       -0.32171545       1.74278119      -1.54391777
H       -2.18701752       0.65523766      -0.33142107
H       -1.55561078      -0.93926397      -0.90905399
H       -0.87945976      -0.49100053       2.00834991
14
Frame=7 idx=005773 GeodesicLength=0.31286778373560514 rxn_smarts="[O:1]([C@@:2]1([H:8])[C@@:3]2([H:9])[C:4]([H:10])([H:11])[C:5]([H:12])([H:13])[C@@:6]12[H:14])[H:7]>>[O:1]([C@@:2]([C:3]1([H:9])[C:4]([H:10])([H:11])[C:5]1([H:12])[H:13])([C:6][H:14])[H:8])[H:7]"
O        1.57376109      -1.37924642      -0.05602265
C        0.88523566      -0.54629514       0.83551219
C        0.09723478       0.61760042       0.27474107
C       -0.16388909       0.72911541      -1.19375988
C       -1.31438290       0.03633726      -0.54419588
C       -0.50706795      -0.88529608       1.07059828
H        2.39707204      -0.94755092      -0.29542878
H        1.49253026      -0.22710530       1.68383707
H        0.03386875       1.51494910       0.87326598
H        0.45509937       0.14243302      -1.86253555
H       -0.33253795       1.74250740      -1.53919520
H       -2.19366388       0.63736320      -0.34487126
H       -1.54230497      -0.94890887      -0.91800423
H       -0.88095521      -0.48590310       2.01605885
14
Frame=8 idx=005773 GeodesicLength=0.35757117589798093 rxn_smarts="[O:1]([C@@:2]1([H:8])[C@@:3]2([H:9])[C:4]([H:10])([H:11])[C:5]([H:12])([H:13])[C@@:6]12[H:14])[H:7]>>[O:1]([C@@:2]([C:3]1([H:9])[C:4]([H:10])([H:11])[C:5]1([H:12])[H:13])([C:6][H:14])[H:8])[H:7]"
O        1.56192210      -1.38331756      -0.05949755
C        0.88465427      -0.54583104       0.83554881
C        0.09945729       0.62600585       0.28206258
C       -0.16321371       0.73089930      -1.18773431
C       -1.31183122       0.02655202      -0.54370871
C       -0.51133710      -0.86608840       1.07158690
H        2.38620230      -0.95685566      -0.30472005
H        1.49640929      -0.23301400       1.68292533
H        0.04977992       1.52607326       0.87783034
H        0.46286563       0.15369319      -1.85837277
H       -0.34334511       1.74210407      -1.53447487
H       -2.20003807       0.61935080      -0.35834725
H       -1.52886068      -0.95846943      -0.92657510
H       -0.88266490      -0.48110239       2.02347665
14
Frame=9 idx=005773 GeodesicLength=0.402274313365156 rxn_smarts="[O:1]([C@@:2]1([H:8])[C@@:3]2([H:9])[C:4]([H:10])([H:11])[C:5]([H:12])([H:13])[C@@:6]12[H:14])[H:7]>>[O:1]([C@@:2]([C:3]1([H:9])[C:4]([H:10])([H:11])[C:5]1([H:12])[H:13])([C:6][H:14])[H:8])[H:7]"
O        1.55007259      -1.38718462      -0.06291916
C        0.88393727      -0.54536401       0.83556501
C        0.10171649       0.63446077       0.28933039
C       -0.16264398       0.73265481      -1.18173090
C       -1.30927324       0.01682382      -0.54318450
C       -0.51551613      -0.84686029       1.07250667
H        2.37520909      -0.96583900      -0.31389181
H        1.50001338      -0.23898854       1.68205427
H        0.06630964       1.53713896       0.88221519
H        0.47035159       0.16491667      -1.85418630
H       -0.35411430       1.74156580      -1.52976861
H       -2.20613480       0.60123528      -0.37181326
H       -1.51533102      -0.96792774      -0.93476509
H       -0.88459659      -0.47663191       2.03058812
14
Frame=10 idx=005773 GeodesicLength=0.44697045878262526 rxn_smarts="[O:1]([C@@:2]1([H:8])[C@@:3]2([H:9])[C:4]([H:10])([H:11])[C:5]([H:12])([H:13])[C@@:6]12[H:14])[H:7]>>[O:1]([C@@:2]([C:3]1([H:9])[C:4]([H:10])([H:11])[C:5]1([H:12])[H:13])([C:6][H:14])[H:8])[H:7]"
O        1.53824318      -1.39083224      -0.06628144
C        0.88308783      -0.54489230       0.83555741
C        0.10401857       0.64296276       0.29653868
C       -0.16218152       0.73436935      -1.17575248
C       -1.30671960       0.00716394      -0.54261308
C       -0.51959738      -0.82761572       1.07333544
H        2.36412985      -0.97447948      -0.32290584
H        1.50332760      -0.24502398       1.68122103
H        0.08343363       1.54812089       0.88640811
H        0.47753772       0.17606630      -1.84998601
H       -0.36482738       1.74088751      -1.52507942
H       -2.21194664       0.58305917      -0.38522841
H       -1.50176406      -0.97726903      -0.94257080
H       -0.88674180      -0.47251717       2.03735680
14
Frame=11 idx=005773 GeodesicLength=0.4916617315476523 rxn_smarts="[O:1]([C@@:2]1([H:8])[C@@:3]2([H:9])[C:4]([H:10])([H:11])[C:5]([H:12])([H:13])[C@@:6]12[H:14])[H:7]>>[O:1]([C@@:2]([C:3]1([H:9])[C:4]([H:10])([H:11])[C:5]1([H:12])[H:13])([C:6][H:14])[H:8])[H:7]"
O        1.52641948      -1.39427622      -0.06958559
C        0.88210523      -0.54441074       0.83553491
C        0.10637141       0.65152082       0.30368799
C       -0.16182567       0.73605397      -1.16979404
C       -1.30416177      -0.00243576      -0.54199382
C       -0.52359145      -0.80834140       1.07408621
H        2.35294764      -0.98279439      -0.33179472
H        1.50636306      -0.25111378       1.68043824
H        0.10116957       1.55900902       0.89039377
H        0.48443714       0.18716455      -1.84576255
H       -0.37550682       1.74008130      -1.52040007
H       -2.21747656       0.56479575      -0.39860494
H       -1.48813258      -0.98650412      -0.95000297
H       -0.88911868      -0.46874900       2.04379759
14
Frame=12 idx=005773 GeodesicLength=0.5363715550128613 rxn_smarts="[O:1]([C@@:2]1([H:8])[C@@:3]2([H:9])[C:4]([H:10])([H:11])[C:5]([H:12])([H:13])[C@@:6]12[H:14])[H:7]>>[O:1]([C@@:2]([C:3]1([H:9])[C:4]([H:10])([H:11])[C:5]1([H:12])[H:13])([C:6][H:14])[H:8])[H:7]"
O        1.51458319      -1.39753364      -0.07282277
C        0.88098673      -0.54391537       0.83550320
C        0.10878273       0.66014326       0.31078375
C       -0.16157525       0.73772038      -1.16385122
C       -1.30159263      -0.01198800      -0.54132760
C       -0.52750332      -0.78901526       1.07477181
H        2.34164176      -0.99080462      -0.34057791
H        1.50912567      -0.25725933       1.67970380
H        0.11952841       1.56979439       0.89416393
H        0.49106846       0.19823824      -1.84151845
H       -0.38617496       1.73916144      -1.51571292
H       -2.22273294       0.54641424      -0.41194783
H       -1.47441016      -0.99565121      -0.95707659
H       -0.89172768      -0.46530455       2.04990879
14
Frame=13 idx=005773 GeodesicLength=0.5811144427607569 rxn_smarts="[O:1]([C@@:2]1([H:8])[C@@:3]2([H:9])[C:4]([H:10])([H:11])[C:5]([H:12])([H:13])[C@@:6]12[H:14])[H:7]>>[O:1]([C@@:2]([C:3]1([H:9])[C:4]([H:10])([H:11])[C:5]1([H:12])[H:13])([C:6][H:14])[H:8])[H:7]"
O        1.50272056      -1.40061793      -0.07598620
C        0.87973196      -0.54340235       0.83546894
C        0.11125979       0.66883967       0.31782763
C       -0.16143124       0.73938008      -1.15791979
C       -1.29900741      -0.02150260      -0.54061269
C       -0.53133813      -0.76962075       1.07540103
H        2.33019691      -0.99852854      -0.34927028
H        1.51162437      -0.26345961       1.67902044
H        0.13852276       1.58046652       0.89770205
H        0.49744530       0.20930975      -1.83724943
H       -0.39685395       1.73814268      -1.51100792
H       -2.22772110       0.52789479      -0.42526478
H       -1.46057524      -1.00472473      -0.96379876
H       -0.89457459      -0.46217700       2.05568976
14
Frame=14 idx=005773 GeodesicLength=0.6259138803140947 rxn_smarts="[O:1]([C@@:2]1([H:8])[C@@:3]2([H:9])[C:4]([H:10])([H:11])[C:5]([H:12])([H:13])[C@@:6]12[H:14])[H:7]>>[O:1]([C@@:2]([C:3]1([H:9])[C:4]([H:10])([H:11])[C:5]1([H:12])[H:13])([C:6][H:14])[H:8])[H:7]"
O        1.49080992      -1.40354174      -0.07907275
C        0.87833286      -0.54286532       0.83543443
C        0.11381013       0.67761653       0.32482485
C       -0.16139090       0.74103916      -1.15198995
C       -1.29638801      -0.03098913      -0.53984609
C       -0.53509969      -0.75013268       1.07598064
H        2.31857907      -1.00597990      -0.35790188
H        1.51385186      -0.26971131       1.67838463
H        0.15815960       1.59101057       0.90099793
H        0.50358149       0.22040013      -1.83294945
H       -0.40756229       1.73702612      -1.50626206
H       -2.23243325       0.50920416      -0.43855518
H       -1.44658674      -1.01373393      -0.97017805
H       -0.89766407      -0.45934265       2.06113294
14
Frame=15 idx=005773 GeodesicLength=0.6707240896516062 rxn_smarts="[O:1]([C@@:2]1([H:8])[C@@:3]2([H:9])[C:4]([H:10])([H:11])[C:5]([H:12])([H:13])[C@@:6]12[H:14])[H:7]>>[O:1]([C@@:2]([C:3]1([H:9])[C:4]([H:10])([H:11])[C:5]1([H:12])[H:13])([C:6][H:14])[H:8])[H:7]"
O        1.47892580      -1.40626634      -0.08208879
C        0.87680584      -0.54230408       0.83539729
C        0.11644435       0.68646765       0.33175602
C       -0.16145820       0.74267029      -1.14607703
C       -1.29376886      -0.04041353      -0.53900920
C       -0.53877666      -0.73058580       1.07646855
H        2.30689143      -1.01310776      -0.36639256
H        1.51579670      -0.27599863       1.67781674
H        0.17838517       1.60139385       0.90403375
H        0.50942284       0.23142076      -1.82863835
H       -0.41824446       1.73579935      -1.50151257
H       -2.23686051       0.49044526      -0.45174974
H       -1.43256669      -1.02263405      -0.97619946
H       -0.90099675      -0.45688698       2.06619533
14
Frame=16 idx=005773 GeodesicLength=0.7155559113332985 rxn_smarts="[O:1]([C@@:2]1([H:8])[C@@:3]2([H:9])[C:4]([H:10])([H:11])[C:5]([H:12])([H:13])[C@@:6]12[H:14])[H:7]>>[O:1]([C@@:2]([C:3]1([H:9])[C:4]([H:10])([H:11])[C:5]1([H:12])[H:13])([C:6][H:14])[H:8])[H:7]"
O        1.46705484      -1.40880108      -0.08502228
C        0.87514639      -0.54171512       0.83536360
C        0.11917220       0.69539851       0.33862408
C       -0.16163055       0.74428318      -1.14017915
C       -1.29114214      -0.04978389      -0.53810040
C       -0.54237153      -0.71096280       1.07687630
H        2.29511325      -1.01992108      -0.37475676
H        1.51745705      -0.28232257       1.67731768
H        0.19920738       1.61159914       0.90679153
H        0.51498121       0.24239307      -1.82432102
H       -0.42891518       1.73447248      -1.49674893
H       -2.24100598       0.47159568      -0.46484301
H       -1.41849334      -1.03143350      -0.98186989
H       -0.90457362      -0.45480201       2.07086824
