12
Frame=0 idx=004262 GeodesicLength=0.0 rxn_smarts="[O:1]([C:2]([C@@:3]([O:4][H:11])([C:5](=[O:6])[H:12])[H:10])([H:8])[H:9])[H:7]>>[C:3](\[O:4][H:11])(=[C:5](\[O:6][H:7])[H:12])[H:10].[O:1]=[C:2]([H:8])[H:9]"
O       -1.40762613       0.78457195      -0.61653006
C       -1.28117658      -0.24959525       0.12124281
C        0.81003991      -0.72257279       0.02121914
O        0.97501571      -0.82654145      -1.31059168
C        0.83936990       0.48911720       0.67618379
O        0.69747521       1.59006975       0.01424774
H       -0.42060539       1.45921873      -0.38282980
H       -1.40519095      -1.23064801      -0.34344812
H       -1.54656023      -0.20015029       1.18336128
H        0.91973639      -1.66001030       0.55072769
H        0.97221108       0.06580839      -1.68140027
H        0.84731109       0.50073207       1.76781743
12
Frame=1 idx=004262 GeodesicLength=0.08244611737838242 rxn_smarts="[O:1]([C:2]([C@@:3]([O:4][H:11])([C:5](=[O:6])[H:12])[H:10])([H:8])[H:9])[H:7]>>[C:3](\[O:4][H:11])(=[C:5](\[O:6][H:7])[H:12])[H:10].[O:1]=[C:2]([H:8])[H:9]"
O       -1.42812852       0.79122700      -0.59995384
C       -1.29294659      -0.25316388       0.12441482
C        0.80395968      -0.72462998       0.02279063
O        0.98083622      -0.82877424      -1.30949056
C        0.85566239       0.49163152       0.67284557
O        0.71206897       1.58849809       0.00471880
H       -0.42787159       1.46267500      -0.38561074
H       -1.41791491      -1.22597339      -0.35793057
H       -1.56887560      -0.21770499       1.18445708
H        0.92929233      -1.65783058       0.55697737
H        0.99240665       0.06453893      -1.67779556
H        0.86151095       0.50950651       1.76457699
12
Frame=2 idx=004262 GeodesicLength=0.16486536439299732 rxn_smarts="[O:1]([C:2]([C@@:3]([O:4][H:11])([C:5](=[O:6])[H:12])[H:10])([H:8])[H:9])[H:7]>>[C:3](\[O:4][H:11])(=[C:5](\[O:6][H:7])[H:12])[H:10].[O:1]=[C:2]([H:8])[H:9]"
O       -1.44889250       0.79826965      -0.58210683
C       -1.30490982      -0.25678343       0.12771165
C        0.79783365      -0.72644545       0.02449855
O        0.98665040      -0.83127918      -1.30816103
C        0.87241477       0.49422064       0.66922880
O        0.72691979       1.58689418      -0.00514751
H       -0.43528766       1.46605613      -0.38851579
H       -1.43071902      -1.22060372      -0.37304262
H       -1.59197154      -0.23649810       1.18526805
H        0.93888550      -1.65515813       0.56332971
H        1.01311921       0.06269576      -1.67408670
H        0.87595721       0.51863166       1.76102372
12
Frame=3 idx=004262 GeodesicLength=0.24727429672060935 rxn_smarts="[O:1]([C:2]([C@@:3]([O:4][H:11])([C:5](=[O:6])[H:12])[H:10])([H:8])[H:9])[H:7]>>[C:3](\[O:4][H:11])(=[C:5](\[O:6][H:7])[H:12])[H:10].[O:1]=[C:2]([H:8])[H:9]"
O       -1.46990443       0.80571403      -0.56285886
C       -1.31706716      -0.26045956       0.13114668
C        0.79168303      -0.72799401       0.02635995
O        0.99245807      -0.83407259      -1.30658578
C        0.88964452       0.49689883       0.66531734
O        0.74204310       1.58525692      -0.01538846
H       -0.44287979       1.46934433      -0.39155935
H       -1.44358271      -1.21445397      -0.38883240
H       -1.61587381      -0.25664078       1.18573447
H        0.94846183      -1.65197544       0.56979954
H        1.03436071       0.06023086      -1.67026854
H        0.89065663       0.52815138       1.75713541
12
Frame=4 idx=004262 GeodesicLength=0.32967168423838356 rxn_smarts="[O:1]([C:2]([C@@:3]([O:4][H:11])([C:5](=[O:6])[H:12])[H:10])([H:8])[H:9])[H:7]>>[C:3](\[O:4][H:11])(=[C:5](\[O:6][H:7])[H:12])[H:10].[O:1]=[C:2]([H:8])[H:9]"
O       -1.49114211       0.81357624      -0.54204962
C       -1.32941975      -0.26420021       0.13473590
C        0.78553064      -0.72924837       0.02839404
O        0.99825970      -0.83717556      -1.30474452
C        0.90737017       0.49968330       0.66109141
O        0.75744654       1.58358417      -0.02604992
H       -0.45067855       1.47251928      -0.39475597
H       -1.45648127      -1.20741382      -0.40535390
H       -1.64060897      -0.27826308       1.18577190
H        0.95796237      -1.64826631       0.57641184
H        1.05614213       0.05708715      -1.66633556
H        0.90561910       0.53811719       1.75288441
12
Frame=5 idx=004262 GeodesicLength=0.4120765377580189 rxn_smarts="[O:1]([C:2]([C@@:3]([O:4][H:11])([C:5](=[O:6])[H:12])[H:10])([H:8])[H:9])[H:7]>>[C:3](\[O:4][H:11])(=[C:5](\[O:6][H:7])[H:12])[H:10].[O:1]=[C:2]([H:8])[H:9]"
O       -1.51257803       0.82186655      -0.51952738
C       -1.34196902      -0.26801276       0.13849195
C        0.77940065      -0.73018113       0.03062148
O        1.00406038      -0.84060892      -1.30261771
C        0.92561019       0.50258944       0.65653223
O        0.77313900       1.58187371      -0.03717433
H       -0.45872227       1.47555467      -0.39811723
H       -1.46938958      -1.19937332      -0.42266505
H       -1.66619930      -0.30148190       1.18530209
H        0.96732713      -1.64401840       0.58319574
H        1.07846584       0.05321221      -1.66228589
H        0.92085503       0.54857986       1.74824410
12
Frame=6 idx=004262 GeodesicLength=0.49447598265893034 rxn_smarts="[O:1]([C:2]([C@@:3]([O:4][H:11])([C:5](=[O:6])[H:12])[H:10])([H:8])[H:9])[H:7]>>[C:3](\[O:4][H:11])(=[C:5](\[O:6][H:7])[H:12])[H:10].[O:1]=[C:2]([H:8])[H:9]"
O       -1.53416111       0.83059338      -0.49507651
C       -1.35471820      -0.27191116       0.14243109
C        0.77331694      -0.73076342       0.03306496
O        1.00986369      -0.84440155      -1.30017786
C        0.94438249       0.50563782       0.65161265
O        0.78912197       1.58011694      -0.04882306
H       -0.46706072       1.47842570      -0.40165000
H       -1.48227716      -1.19017613      -0.44082778
H       -1.69267406      -0.32644633       1.18419090
H        0.97649632      -1.63921301       0.59019432
H        1.10133410       0.04853378      -1.65811430
H        0.93637574       0.55960397       1.74317560
12
Frame=7 idx=004262 GeodesicLength=0.5768768717965288 rxn_smarts="[O:1]([C:2]([C@@:3]([O:4][H:11])([C:5](=[O:6])[H:12])[H:10])([H:8])[H:9])[H:7]>>[C:3](\[O:4][H:11])(=[C:5](\[O:6][H:7])[H:12])[H:10].[O:1]=[C:2]([H:8])[H:9]"
O       -1.55583606       0.83974980      -0.46852276
C       -1.36767034      -0.27591194       0.14657032
C        0.76730442      -0.73096854       0.03574181
O        1.01567518      -0.84857794      -1.29740221
C        0.96369824       0.50884483       0.64630957
O        0.80539111       1.57830500      -0.06104848
H       -0.47575468       1.48110384      -0.40534590
H       -1.49511364      -1.17967193      -0.45988095
H       -1.72005500      -0.35326657       1.18230487
H        0.98541511      -1.63383886       0.59744580
H        1.12474864       0.04298983      -1.65381356
H        0.95219701       0.57124247       1.73764149
12
Frame=8 idx=004262 GeodesicLength=0.6592376430728872 rxn_smarts="[O:1]([C:2]([C@@:3]([O:4][H:11])([C:5](=[O:6])[H:12])[H:10])([H:8])[H:9])[H:7]>>[C:3](\[O:4][H:11])(=[C:5](\[O:6][H:7])[H:12])[H:10].[O:1]=[C:2]([H:8])[H:9]"
O       -1.57750715       0.84932666      -0.43961063
C       -1.38083109      -0.28003340       0.15091799
C        0.76138801      -0.73076569       0.03867798
O        1.02150749      -0.85317902      -1.29425252
C        0.98357539       0.51223259       0.64058237
O        0.82192915       1.57642099      -0.07392836
H       -0.48488074       1.48355918      -0.40917534
H       -1.50786943      -1.16766211      -0.47988971
H       -1.74837175      -0.38209159       1.17945930
H        0.99402710      -1.62787257       0.60501510
H        1.14870070       0.03649517      -1.64937944
H        0.96833231       0.58356979       1.73158325
12
Frame=9 idx=004262 GeodesicLength=0.7414298320545946 rxn_smarts="[O:1]([C:2]([C@@:3]([O:4][H:11])([C:5](=[O:6])[H:12])[H:10])([H:8])[H:9])[H:7]>>[C:3](\[O:4][H:11])(=[C:5](\[O:6][H:7])[H:12])[H:10].[O:1]=[C:2]([H:8])[H:9]"
O       -1.59901733       0.85928253      -0.40791102
C       -1.39422143      -0.28432908       0.15545188
C        0.75558328      -0.73012478       0.04189740
O        1.02733011      -0.85827181      -1.29065994
C        1.00404660       0.51583152       0.63438083
O        0.83870775       1.57442819      -0.08757711
H       -0.49452476       1.48580338      -0.41303590
H       -1.52044427      -1.15393117      -0.50089103
H       -1.77767847      -0.41305773       1.17520630
H        1.00227683      -1.62124890       0.61300240
H        1.17310555       0.02892290      -1.64477850
H        0.98483613       0.59669496       1.72491470
12
Frame=10 idx=004262 GeodesicLength=0.8235232411488449 rxn_smarts="[O:1]([C:2]([C@@:3]([O:4][H:11])([C:5](=[O:6])[H:12])[H:10])([H:8])[H:9])[H:7]>>[C:3](\[O:4][H:11])(=[C:5](\[O:6][H:7])[H:12])[H:10].[O:1]=[C:2]([H:8])[H:9]"
O       -1.62025107       0.86953607      -0.37330768
C       -1.40783798      -0.28880755       0.16019381
C        0.74992890      -0.72902392       0.04543047
O        1.03319542      -0.86389556      -1.28660817
C        1.02511482       0.51965113       0.62766608
O        0.85568486       1.57230878      -0.10205393
H       -0.50483618       1.48777074      -0.41687484
H       -1.53283784      -1.13820061      -0.52294400
H       -1.80797879      -0.44623651       1.16947582
H        1.01012436      -1.61397958       0.62146323
H        1.19798778       0.02021149      -1.64003169
H        1.00170570       0.61066552       1.71759091
12
Frame=11 idx=004262 GeodesicLength=0.9055256658552246 rxn_smarts="[O:1]([C:2]([C@@:3]([O:4][H:11])([C:5](=[O:6])[H:12])[H:10])([H:8])[H:9])[H:7]>>[C:3](\[O:4][H:11])(=[C:5](\[O:6][H:7])[H:12])[H:10].[O:1]=[C:2]([H:8])[H:9]"
O       -1.64105388       0.87998541      -0.33562961
C       -1.42169481      -0.29350137       0.16511851
C        0.74444721      -0.72743904       0.04929377
O        1.03911970      -0.87009093      -1.28205646
C        1.04679475       0.52370450       0.62039217
O        0.87281835       1.57002463      -0.11743328
H       -0.51595916       1.48945077      -0.42053447
H       -1.54499417      -1.12028252      -0.54606574
H       -1.83929396      -0.48163277       1.16204007
H        1.01752597      -1.60604103       0.63046561
H        1.22331299       0.01028103      -1.63512754
H        1.01897701       0.62554133       1.70953695
12
Frame=12 idx=004262 GeodesicLength=0.9874176201937714 rxn_smarts="[O:1]([C:2]([C@@:3]([O:4][H:11])([C:5](=[O:6])[H:12])[H:10])([H:8])[H:9])[H:7]>>[C:3](\[O:4][H:11])(=[C:5](\[O:6][H:7])[H:12])[H:10].[O:1]=[C:2]([H:8])[H:9]"
O       -1.66122808       0.89046546      -0.29467497
C       -1.43580562      -0.29846189       0.17020237
C        0.73916534      -0.72534757       0.05351095
O        1.04511246      -0.87692001      -1.27695395
C        1.06909911       0.52800507       0.61250130
O        0.89005311       1.56753240      -0.13381258
H       -0.52806058       1.49085859      -0.42378097
H       -1.55683763      -1.09993624      -0.57023392
H       -1.87167366      -0.51922834       1.15254226
H        1.02445462      -1.59739466       0.64009980
H        1.24901595      -0.00096643      -1.63006502
H        1.03670500       0.64139362       1.70066473
12
Frame=13 idx=004262 GeodesicLength=1.0691688034525706 rxn_smarts="[O:1]([C:2]([C@@:3]([O:4][H:11])([C:5](=[O:6])[H:12])[H:10])([H:8])[H:9])[H:7]>>[C:3](\[O:4][H:11])(=[C:5](\[O:6][H:7])[H:12])[H:10].[O:1]=[C:2]([H:8])[H:9]"
O       -1.68054520       0.90075361      -0.25037549
C       -1.45018375      -0.30374396       0.17539097
C        0.73411220      -0.72273421       0.05809108
O        1.05119474      -0.88442497      -1.27126684
C        1.09202542       0.53255429       0.60393697
O        0.90731312       1.56478590      -0.15126434
H       -0.54133705       1.49201464      -0.42630362
H       -1.56830497      -1.07699337      -0.59538420
H       -1.90515399      -0.55885906       1.14069623
H        1.03089803      -1.58801572       0.65043334
H        1.27504159      -0.01360031      -1.62484617
H        1.05493985       0.65826315       1.69089206
12
Frame=14 idx=004262 GeodesicLength=1.150782789111787 rxn_smarts="[O:1]([C:2]([C@@:3]([O:4][H:11])([C:5](=[O:6])[H:12])[H:10])([H:8])[H:9])[H:7]>>[C:3](\[O:4][H:11])(=[C:5](\[O:6][H:7])[H:12])[H:10].[O:1]=[C:2]([H:8])[H:9]"
O       -1.69882958       0.91054823      -0.20272238
C       -1.46484247      -0.30941116       0.18063070
C        0.72931251      -0.71958036       0.06304255
O        1.05737054      -0.89265292      -1.26495793
C        1.11557091       0.53735186       0.59463507
O        0.92452689       1.56173315      -0.16986235
H       -0.55594029       1.49300783      -0.42771569
H       -1.57931861      -1.05131816      -0.62135397
H       -1.93979119      -0.60031115       1.12611498
H        1.03685369      -1.57786234       0.66153137
H        1.30132320      -0.02768441      -1.61946731
H        1.07376441       0.67617944       1.68012496
12
Frame=15 idx=004262 GeodesicLength=1.232285576379657 rxn_smarts="[O:1]([C:2]([C@@:3]([O:4][H:11])([C:5](=[O:6])[H:12])[H:10])([H:8])[H:9])[H:7]>>[C:3](\[O:4][H:11])(=[C:5](\[O:6][H:7])[H:12])[H:10].[O:1]=[C:2]([H:8])[H:9]"
O       -1.71591867       0.91948680      -0.15184617
C       -1.47979118      -0.31553140       0.18584216
C        0.72479280      -0.71587286       0.06835624
O        1.06364677      -0.90162437      -1.25801356
C        1.13972035       0.54239018       0.58454931
O        0.94162894       1.55832989      -0.18964416
H       -0.57201067       1.49394100      -0.42759348
H       -1.58980960      -1.02288061      -0.64789984
H       -1.97563413      -0.64322658       1.10845770
H        1.04233350      -1.56690712       0.67343044
H        1.32778097      -0.04324302      -1.61393248
H        1.09326093       0.69513810       1.66829384
12
Frame=16 idx=004262 GeodesicLength=1.313713638993053 rxn_smarts="[O:1]([C:2]([C@@:3]([O:4][H:11])([C:5](=[O:6])[H:12])[H:10])([H:8])[H:9])[H:7]>>[C:3](\[O:4][H:11])(=[C:5](\[O:6][H:7])[H:12])[H:10].[O:1]=[C:2]([H:8])[H:9]"
O       -1.73168240       0.92715855      -0.09789179
C       -1.49503693      -0.32218516       0.19093799
C        0.72057868      -0.71160778       0.07403158
O        1.07001739      -0.91137857      -1.25043510
C        1.16445056       0.54766746       0.57363180
O        0.95854500       1.55454731      -0.21065852
H       -0.58966342       1.49494647      -0.42548407
H       -1.59970417      -0.99164202      -0.67473312
H       -2.01273577      -0.68722029       1.08733882
H        1.04736635      -1.55512920       0.68618397
H        1.35434363      -0.06030824      -1.60826607
H        1.11352108       0.71515146       1.65534451
