12
Frame=0 idx=005224 GeodesicLength=0.0 rxn_smarts="[C:1]([C:2]#[C:3][C@@:4]1([H:10])[C:5]([H:11])([H:12])[O:6]1)([H:7])([H:8])[H:9]>>[C:1]([C:2]1=[C:3]=[C:4]1[H:10])([H:7])([H:8])[H:9].[C:5](=[O:6])([H:11])[H:12]"
C       -1.69370222      -0.19997579       0.25903061
C       -0.64641264       0.27739897      -0.66291360
C       -0.15534041       0.58451245      -1.84744118
C        0.69708365       0.75902907      -0.61757888
C        1.51973048      -0.45012158       0.44082639
O        2.18934222      -0.43569836      -0.62865474
H       -2.65167390      -0.20310715      -0.26011012
H       -1.48507368      -1.22225834       0.58271234
H       -1.76698646       0.43343043       1.14316306
H        1.30425151       1.62067839      -0.39523612
H        0.84345385      -1.28481732       0.66409546
H        1.84532761       0.12092920       1.32210673
12
Frame=1 idx=005224 GeodesicLength=0.1800841308488739 rxn_smarts="[C:1]([C:2]#[C:3][C@@:4]1([H:10])[C:5]([H:11])([H:12])[O:6]1)([H:7])([H:8])[H:9]>>[C:1]([C:2]1=[C:3]=[C:4]1[H:10])([H:7])([H:8])[H:9].[C:5](=[O:6])([H:11])[H:12]"
C       -1.74610367      -0.17664228       0.25975750
C       -0.66968371       0.28252099      -0.63699573
C       -0.13373738       0.48928650      -1.82102136
C        0.69605460       0.76161774      -0.60118456
C        1.58708432      -0.46632781       0.41924987
O        2.24900242      -0.38542439      -0.65492976
H       -2.68444759      -0.20375296      -0.29473261
H       -1.54766512      -1.18581544       0.62745973
H       -1.86002945       0.49059817       1.11468767
H        1.26005030       1.64466901      -0.34909491
H        0.93652526      -1.32726971       0.61876350
H        1.91295003       0.07654018       1.31804065
12
Frame=2 idx=005224 GeodesicLength=0.3573107968991057 rxn_smarts="[C:1]([C:2]#[C:3][C@@:4]1([H:10])[C:5]([H:11])([H:12])[O:6]1)([H:7])([H:8])[H:9]>>[C:1]([C:2]1=[C:3]=[C:4]1[H:10])([H:7])([H:8])[H:9].[C:5](=[O:6])([H:11])[H:12]"
C       -1.80264287      -0.15213716       0.25810797
C       -0.69294496       0.28138958      -0.60906317
C       -0.11456279       0.39333460      -1.78260770
C        0.69403357       0.76025540      -0.58173921
C        1.66033437      -0.48053148       0.39623695
O        2.30758706      -0.33200859      -0.68198409
H       -2.71827326      -0.20063681      -0.33206056
H       -1.62145935      -1.14718135       0.67008102
H       -1.95379739       0.54891065       1.07966461
H        1.21297850       1.66211531      -0.29988189
H        1.03979251      -1.36803218       0.57341797
H        1.98895460       0.03452204       1.30982810
12
Frame=3 idx=005224 GeodesicLength=0.5354854816006281 rxn_smarts="[C:1]([C:2]#[C:3][C@@:4]1([H:10])[C:5]([H:11])([H:12])[O:6]1)([H:7])([H:8])[H:9]>>[C:1]([C:2]1=[C:3]=[C:4]1[H:10])([H:7])([H:8])[H:9].[C:5](=[O:6])([H:11])[H:12]"
C       -1.86550721      -0.12617976       0.25396864
C       -0.71719526       0.27291349      -0.57823542
C       -0.09694983       0.29472287      -1.73270473
C        0.69103495       0.75421992      -0.55783597
C        1.74186245      -0.49226763       0.37131690
O        2.36594126      -0.27443266      -0.71162630
H       -2.75549338      -0.19262446      -0.37319592
H       -1.71069685      -1.10596201       0.71063481
H       -2.05004584       0.60906760       1.03830196
H        1.16345979       1.67216597      -0.24552048
H        1.15622381      -1.40708358       0.52757835
H        2.07736611      -0.00453975       1.29731817
12
Frame=4 idx=005224 GeodesicLength=0.7123064768330253 rxn_smarts="[C:1]([C:2]#[C:3][C@@:4]1([H:10])[C:5]([H:11])([H:12])[O:6]1)([H:7])([H:8])[H:9]>>[C:1]([C:2]1=[C:3]=[C:4]1[H:10])([H:7])([H:8])[H:9].[C:5](=[O:6])([H:11])[H:12]"
C       -1.93455405      -0.09827815       0.24676887
C       -0.74254097       0.25621667      -0.54239713
C       -0.08018246       0.19135074      -1.66858017
C        0.68635265       0.74227592      -0.52722526
C        1.83186452      -0.50100679       0.34358521
O        2.42133197      -0.21214332      -0.74469318
H       -2.79500802      -0.17872505      -0.41936540
H       -1.81682227      -1.06104004       0.74826215
H       -2.14883358       0.67187521       0.98917549
H        1.11088581       1.67322524      -0.18419938
H        1.28757834      -1.44396524       0.48062575
H        2.17992805      -0.03978518       1.27804305
12
Frame=5 idx=005224 GeodesicLength=0.887967653223577 rxn_smarts="[C:1]([C:2]#[C:3][C@@:4]1([H:10])[C:5]([H:11])([H:12])[O:6]1)([H:7])([H:8])[H:9]>>[C:1]([C:2]1=[C:3]=[C:4]1[H:10])([H:7])([H:8])[H:9].[C:5](=[O:6])([H:11])[H:12]"
C       -2.01055667      -0.06792452       0.23598797
C       -0.76999674       0.23177467      -0.49875773
C       -0.06532662       0.08287114      -1.58793508
C        0.68012986       0.72324173      -0.48767818
C        1.93091385      -0.50641758       0.31199214
O        2.47189579      -0.14580803      -0.78286394
H       -2.83563489      -0.16180778      -0.47232555
H       -1.94098436      -1.01032693       0.78302163
H       -2.25111972       0.73914637       0.92985202
H        1.05685458       1.66352082      -0.11335514
H        1.43488890      -1.47799486       0.43139714
H        2.29893601      -0.07027502       1.25066472
12
Frame=6 idx=005224 GeodesicLength=1.0605099462236471 rxn_smarts="[C:1]([C:2]#[C:3][C@@:4]1([H:10])[C:5]([H:11])([H:12])[O:6]1)([H:7])([H:8])[H:9]>>[C:1]([C:2]1=[C:3]=[C:4]1[H:10])([H:7])([H:8])[H:9].[C:5](=[O:6])([H:11])[H:12]"
C       -2.09266392      -0.03516682       0.22053786
C       -0.80025462       0.19882757      -0.44525703
C       -0.05231671      -0.03462838      -1.48687405
C        0.67197118       0.69507834      -0.43702319
C        2.03823656      -0.50689425       0.27622663
O        2.51348429      -0.07674350      -0.82680860
H       -2.87635832      -0.13628174      -0.53290899
H       -2.08568533      -0.95521890       0.80841842
H       -2.35243064       0.80831035       0.86260580
H        1.00207676       1.64127205      -0.03238542
H        1.59854990      -1.50687541       0.38122916
H        2.43539083      -0.09167932       1.21223940
12
Frame=7 idx=005224 GeodesicLength=1.2294494245258563 rxn_smarts="[C:1]([C:2]#[C:3][C@@:4]1([H:10])[C:5]([H:11])([H:12])[O:6]1)([H:7])([H:8])[H:9]>>[C:1]([C:2]1=[C:3]=[C:4]1[H:10])([H:7])([H:8])[H:9].[C:5](=[O:6])([H:11])[H:12]"
C       -2.17993358       0.00025231       0.19911414
C       -0.83460514       0.15812623      -0.37941007
C       -0.04163026      -0.16347265      -1.35983805
C        0.66190907       0.65609169      -0.37147470
C        2.15281065      -0.50175772       0.23480467
O        2.54116125      -0.00731382      -0.87806174
H       -2.91419029      -0.10308839      -0.60323569
H       -2.25068322      -0.89386738       0.82160097
H       -2.45181234       0.87986844       0.78603477
H        0.94830925       1.60484024       0.06249965
H        1.77793210      -1.52888345       0.32929750
H        2.59073252      -0.10079550       1.15866855
12
Frame=8 idx=005224 GeodesicLength=1.3879224905033056 rxn_smarts="[C:1]([C:2]#[C:3][C@@:4]1([H:10])[C:5]([H:11])([H:12])[O:6]1)([H:7])([H:8])[H:9]>>[C:1]([C:2]1=[C:3]=[C:4]1[H:10])([H:7])([H:8])[H:9].[C:5](=[O:6])([H:11])[H:12]"
C       -2.26640867       0.03800270       0.17075773
C       -0.87308981       0.11386694      -0.30057096
C       -0.03358761      -0.30307215      -1.19988023
C        0.65025802       0.60625822      -0.28806928
C        2.26737898      -0.49053270       0.18582914
O        2.54661538       0.05926081      -0.93674666
H       -2.93987885      -0.06841405      -0.68269594
H       -2.42714165      -0.82444436       0.82067171
H       -2.54385858       0.95361593       0.69651973
H        0.89802606       1.55314864       0.17480063
H        1.96490575      -1.54189492       0.27347534
H        2.75678098      -0.09579506       1.08590878
12
Frame=9 idx=005224 GeodesicLength=1.5359213821189326 rxn_smarts="[C:1]([C:2]#[C:3][C@@:4]1([H:10])[C:5]([H:11])([H:12])[O:6]1)([H:7])([H:8])[H:9]>>[C:1]([C:2]1=[C:3]=[C:4]1[H:10])([H:7])([H:8])[H:9].[C:5](=[O:6])([H:11])[H:12]"
C       -2.34752393       0.07715529       0.13309063
C       -0.91621589       0.07416095      -0.21375586
C       -0.02740503      -0.44808775      -1.00072991
C        0.63868888       0.54900518      -0.18159636
C        2.37574775      -0.47515572       0.12686195
O        2.52287193       0.11931239      -1.00084528
H       -2.95003693      -0.04971838      -0.76940254
H       -2.60141733      -0.73963786       0.81144139
H       -2.62999878       1.03115532       0.58285538
H        0.85602790       1.48698207       0.31562588
H        2.15116146      -1.54637646       0.20779788
H        2.92809996      -0.07879504       0.98865684
12
Frame=10 idx=005224 GeodesicLength=1.6694695018307222 rxn_smarts="[C:1]([C:2]#[C:3][C@@:4]1([H:10])[C:5]([H:11])([H:12])[O:6]1)([H:7])([H:8])[H:9]>>[C:1]([C:2]1=[C:3]=[C:4]1[H:10])([H:7])([H:8])[H:9].[C:5](=[O:6])([H:11])[H:12]"
C       -2.41568225       0.11537943       0.08491266
C       -0.95920820       0.04039292      -0.11912641
C       -0.02310825      -0.59425561      -0.75073613
C        0.62915148       0.49005403      -0.05054168
C        2.46788067      -0.45535143       0.05561228
O        2.45999377       0.16642742      -1.06976010
H       -2.93538877      -0.04861550      -0.86200687
H       -2.76740192      -0.64302330       0.78677084
H       -2.69956242       1.10713849       0.44284360
H        0.82663501       1.40917240       0.49037318
H        2.32428562      -1.54093399       0.13163908
H        3.09240526      -0.04638485       0.86001954
12
Frame=11 idx=005224 GeodesicLength=1.7868466488999477 rxn_smarts="[C:1]([C:2]#[C:3][C@@:4]1([H:10])[C:5]([H:11])([H:12])[O:6]1)([H:7])([H:8])[H:9]>>[C:1]([C:2]1=[C:3]=[C:4]1[H:10])([H:7])([H:8])[H:9].[C:5](=[O:6])([H:11])[H:12]"
C       -2.45889954       0.14546764       0.02688351
C       -0.99320709       0.01744365      -0.02371119
C       -0.01832461      -0.71318030      -0.46062607
C        0.62504199       0.44599488       0.10005553
C        2.52739321      -0.43612381      -0.02536641
O        2.35615553       0.19878411      -1.13295131
H       -2.89085436      -0.08406055      -0.95044794
H       -2.90414183      -0.53682050       0.75345513
H       -2.74250025       1.17150840       0.27101402
H        0.81572705       1.33193599       0.69680398
H        2.45574438      -1.52932309       0.04019171
H        3.22786552      -0.01162641       0.70469904
12
Frame=12 idx=005224 GeodesicLength=1.9015075095432912 rxn_smarts="[C:1]([C:2]#[C:3][C@@:4]1([H:10])[C:5]([H:11])([H:12])[O:6]1)([H:7])([H:8])[H:9]>>[C:1]([C:2]1=[C:3]=[C:4]1[H:10])([H:7])([H:8])[H:9].[C:5](=[O:6])([H:11])[H:12]"
C       -2.47105430       0.16076387      -0.03456096
C       -1.01306659       0.00131068       0.08288562
C       -0.01164711      -0.78682529      -0.14202531
C        0.62793793       0.43134551       0.25713065
C        2.54549733      -0.42236971      -0.11076364
O        2.21750108       0.20960592      -1.18703748
H       -2.80299268      -0.13128993      -1.03394674
H       -3.01130880      -0.45131497       0.68972448
H       -2.75094189       1.20789559       0.10006748
H        0.82458862       1.28073635       0.90342761
H        2.52649465      -1.51843904      -0.05488966
H        3.31899176       0.01858102       0.52998794
12
Frame=13 idx=005224 GeodesicLength=2.0250011450000946 rxn_smarts="[C:1]([C:2]#[C:3][C@@:4]1([H:10])[C:5]([H:11])([H:12])[O:6]1)([H:7])([H:8])[H:9]>>[C:1]([C:2]1=[C:3]=[C:4]1[H:10])([H:7])([H:8])[H:9].[C:5](=[O:6])([H:11])[H:12]"
C       -2.45412937       0.15872598      -0.09391923
C       -1.02055199      -0.00331361       0.19137667
C       -0.00066594      -0.80055615       0.16385383
C        0.63794556       0.45059784       0.40913391
C        2.52404409      -0.41885012      -0.19291490
O        2.06516722       0.21636035      -1.22090952
H       -2.68145550      -0.19406776      -1.10311830
H       -3.07908981      -0.39506229       0.60857921
H       -2.73197835       1.21475870      -0.05979087
H        0.84841707       1.26481221       1.09459305
H        2.52940033      -1.51603629      -0.15555345
H        3.36289671       0.02263115       0.35866962
12
Frame=14 idx=005224 GeodesicLength=2.1570221921457016 rxn_smarts="[C:1]([C:2]#[C:3][C@@:4]1([H:10])[C:5]([H:11])([H:12])[O:6]1)([H:7])([H:8])[H:9]>>[C:1]([C:2]1=[C:3]=[C:4]1[H:10])([H:7])([H:8])[H:9].[C:5](=[O:6])([H:11])[H:12]"
C       -2.41279184       0.14272741      -0.14741281
C       -1.01955266      -0.00285673       0.29744764
C        0.01569987      -0.76941732       0.43288408
C        0.65272857       0.49295889       0.54820073
C        2.47087662      -0.42301661      -0.26749402
O        1.91047316       0.22629593      -1.23713630
H       -2.53566909      -0.25732190      -1.15730273
H       -3.11276834      -0.36855715       0.51574804
H       -2.68925005       1.19870096      -0.19689198
H        0.87955833       1.27602905       1.26383617
H        2.47600348      -1.52020048      -0.25364809
H        3.36469194       0.00465794       0.20176926
12
Frame=15 idx=005224 GeodesicLength=2.3033986156003703 rxn_smarts="[C:1]([C:2]#[C:3][C@@:4]1([H:10])[C:5]([H:11])([H:12])[O:6]1)([H:7])([H:8])[H:9]>>[C:1]([C:2]1=[C:3]=[C:4]1[H:10])([H:7])([H:8])[H:9].[C:5](=[O:6])([H:11])[H:12]"
C       -2.35434203       0.11783485      -0.19451027
C       -1.01662325      -0.00026855       0.40267314
C        0.03450168      -0.71134826       0.67124594
C        0.67004132       0.55031355       0.67369077
C        2.39586901      -0.43303929      -0.33507649
O        1.75655519       0.23836756      -1.24270347
H       -2.36701755      -0.30583498      -1.20189362
H       -3.12038050      -0.37446255       0.40768887
H       -2.63358156       1.16941142      -0.30535435
H        0.91304524       1.30742831       1.41224708
H        2.38458158      -1.53075763      -0.34227509
H        3.33735088      -0.02764445       0.05426749
12
Frame=16 idx=005224 GeodesicLength=2.459249064744424 rxn_smarts="[C:1]([C:2]#[C:3][C@@:4]1([H:10])[C:5]([H:11])([H:12])[O:6]1)([H:7])([H:8])[H:9]>>[C:1]([C:2]1=[C:3]=[C:4]1[H:10])([H:7])([H:8])[H:9].[C:5](=[O:6])([H:11])[H:12]"
C       -2.28130568       0.08808908      -0.23559255
C       -1.01009215       0.00193958       0.49346500
C        0.05331508      -0.63770686       0.87174505
C        0.68762874       0.61325407       0.78421193
C        2.30314198      -0.44410104      -0.39291475
O        1.60783188       0.25586590      -1.23817783
H       -2.19083141      -0.34855620      -1.23335575
H       -3.09831714      -0.39611284       0.30073698
H       -2.56224327       1.13273304      -0.39417398
H        0.94202711       1.34439178       1.54561186
H        2.26501779      -1.54024480      -0.42333012
H        3.28382706      -0.06955171      -0.07822584
