17
Frame=0 idx=008418 GeodesicLength=0.0 rxn_smarts="[O:1]([C@@:2]1([H:9])[C:3]([H:10])([H:11])[C:4]([H:12])([H:13])[C:5]([H:14])([H:15])[C:6]([H:16])=[C:7]1[H:17])[H:8]>>[H:12][H:17].[O:1]([C:2](=[C:7]=[C:6]([C:5]([C:4](=[C:3]([H:10])[H:11])[H:13])([H:14])[H:15])[H:16])[H:9])[H:8]"
O        1.96761450      -1.09693839       0.86952503
C        1.30701439      -0.51713233      -0.23577341
C       -0.13115130      -1.24689593      -0.39929834
C       -1.18138193      -0.45521780       0.22949556
C       -1.33155153       0.88850120      -0.31733714
C        0.05825385       1.59044713      -0.39080760
C        1.21509129       0.95329695      -0.18276861
H        2.52296353      -0.40547210       1.23919876
H        1.83767562      -0.78372002      -1.15642930
H       -0.07294534      -2.27505698      -0.04664405
H       -0.27856213      -1.23537830      -1.48255369
H       -0.41268477      -0.01683327       1.51756962
H       -1.95127520      -0.90878911       0.84235291
H       -1.61997226       0.81823841      -1.37394084
H       -2.07837692       1.49375581       0.19898844
H       -0.00472755       2.63723148      -0.67790604
H        0.15401573       0.55996330       1.36632868
17
Frame=1 idx=008418 GeodesicLength=0.14354477542521543 rxn_smarts="[O:1]([C@@:2]1([H:9])[C:3]([H:10])([H:11])[C:4]([H:12])([H:13])[C:5]([H:14])([H:15])[C:6]([H:16])=[C:7]1[H:17])[H:8]>>[H:12][H:17].[O:1]([C:2](=[C:7]=[C:6]([C:5]([C:4](=[C:3]([H:10])[H:11])[H:13])([H:14])[H:15])[H:16])[H:9])[H:8]"
O        1.99673672      -1.10086714       0.84950709
C        1.32199749      -0.51162901      -0.24087928
C       -0.14594889      -1.25766920      -0.40623742
C       -1.18030602      -0.45567306       0.23216964
C       -1.33146409       0.88735433      -0.32608958
C        0.05601201       1.58789480      -0.40127397
C        1.20986150       0.95343094      -0.17152606
H        2.50378169      -0.40167683       1.26965737
H        1.85153216      -0.76769784      -1.16491116
H       -0.09019038      -2.28535411      -0.05184607
H       -0.29993863      -1.25092326      -1.48856032
H       -0.41191501      -0.01186911       1.53590042
H       -1.95188960      -0.90720561       0.84400710
H       -1.62535576       0.81315953      -1.38068068
H       -2.07629445       1.49510983       0.19040062
H       -0.00264402       2.63996968      -0.66853630
H        0.17602527       0.57364606       1.37889859
17
Frame=2 idx=008418 GeodesicLength=0.28700857366569743 rxn_smarts="[O:1]([C@@:2]1([H:9])[C:3]([H:10])([H:11])[C:4]([H:12])([H:13])[C:5]([H:14])([H:15])[C:6]([H:16])=[C:7]1[H:17])[H:8]>>[H:12][H:17].[O:1]([C:2](=[C:7]=[C:6]([C:5]([C:4](=[C:3]([H:10])[H:11])[H:13])([H:14])[H:15])[H:16])[H:9])[H:8]"
O        2.02685539      -1.10293408       0.82908532
C        1.33755178      -0.50533627      -0.24622217
C       -0.16106101      -1.26868059      -0.41301312
C       -1.17905611      -0.45614364       0.23477554
C       -1.33124425       0.88602471      -0.33513011
C        0.05384439       1.58543148      -0.41144054
C        1.20445124       0.95375582      -0.16024752
H        2.48311808      -0.40131729       1.29958979
H        1.86575201      -0.75059120      -1.17368462
H       -0.10731045      -2.29560756      -0.05621567
H       -0.32194262      -1.26713594      -1.49428037
H       -0.41156250      -0.00670725       1.55467885
H       -1.95246207      -0.90541554       0.84559427
H       -1.63026582       0.80788304      -1.38774420
H       -2.07433651       1.49616841       0.18126827
H       -0.00084266       2.64240187      -0.65880032
H        0.19851112       0.58820402       1.39178660
17
Frame=3 idx=008418 GeodesicLength=0.43047321872898303 rxn_smarts="[O:1]([C@@:2]1([H:9])[C:3]([H:10])([H:11])[C:4]([H:12])([H:13])[C:5]([H:14])([H:15])[C:6]([H:16])=[C:7]1[H:17])[H:8]>>[H:12][H:17].[O:1]([C:2](=[C:7]=[C:6]([C:5]([C:4](=[C:3]([H:10])[H:11])[H:13])([H:14])[H:15])[H:16])[H:9])[H:8]"
O        2.05793643      -1.10304225       0.80843408
C        1.35370052      -0.49823383      -0.25174297
C       -0.17652982      -1.27996034      -0.41962747
C       -1.17765321      -0.45664252       0.23730039
C       -1.33090544       0.88451784      -0.34446600
C        0.05174333       1.58308326      -0.42126780
C        1.19885909       0.95426416      -0.14889285
H        2.46120994      -0.40454501       1.32870477
H        1.88040810      -0.73239440      -1.18264564
H       -0.12434941      -2.30587204      -0.05978977
H       -0.34461004      -1.28401735      -1.49971193
H       -0.41170800      -0.00135146       1.57394103
H       -1.95303087      -0.90342786       0.84708572
H       -1.63470651       0.80242509      -1.39515751
H       -2.07253181       1.49693824       0.17157508
H        0.00066371       2.64454736      -0.64877121
H        0.22150401       0.60371110       1.40503207
17
Frame=4 idx=008418 GeodesicLength=0.5740152859153974 rxn_smarts="[O:1]([C@@:2]1([H:9])[C:3]([H:10])([H:11])[C:4]([H:12])([H:13])[C:5]([H:14])([H:15])[C:6]([H:16])=[C:7]1[H:17])[H:8]>>[H:12][H:17].[O:1]([C:2](=[C:7]=[C:6]([C:5]([C:4](=[C:3]([H:10])[H:11])[H:13])([H:14])[H:15])[H:16])[H:9])[H:8]"
O        2.08993117      -1.10112437       0.78773307
C        1.37046917      -0.49028674      -0.25738032
C       -0.19239366      -1.29153328      -0.42610729
C       -1.17610757      -0.45718821       0.23974238
C       -1.33046468       0.88284965      -0.35407229
C        0.04968973       1.58088376      -0.43068420
C        1.19307568       0.95495837      -0.13738547
H        2.43826853      -0.41153205       1.35678734
H        1.89558188      -0.71306835      -1.19169483
H       -0.14134610      -2.31621195      -0.06266096
H       -0.36798021      -1.30153862      -1.50488733
H       -0.41241738       0.00416771       1.59375466
H       -1.95361110      -0.90127031       0.84846610
H       -1.63870324       0.79682068      -1.40292006
H       -2.07090196       1.49744002       0.16135915
H        0.00186945       2.64638952      -0.63875264
H        0.24504027       0.62024417       1.41870269
17
Frame=5 idx=008418 GeodesicLength=0.7173967305313992 rxn_smarts="[O:1]([C@@:2]1([H:9])[C:3]([H:10])([H:11])[C:4]([H:12])([H:13])[C:5]([H:14])([H:15])[C:6]([H:16])=[C:7]1[H:17])[H:8]>>[H:12][H:17].[O:1]([C:2](=[C:7]=[C:6]([C:5]([C:4](=[C:3]([H:10])[H:11])[H:13])([H:14])[H:15])[H:16])[H:9])[H:8]"
O        2.12272655      -1.09700044       0.76711963
C        1.38787102      -0.48148684      -0.26310634
C       -0.20869605      -1.30336402      -0.43244772
C       -1.17440894      -0.45777442       0.24210147
C       -1.32987130       0.88095180      -0.36393076
C        0.04771680       1.57872764      -0.43973098
C        1.18709558       0.95573678      -0.12582359
H        2.41421237      -0.42224973       1.38349735
H        1.91138090      -0.69265770      -1.20071731
H       -0.15838125      -2.32654492      -0.06487408
H       -0.39205161      -1.31962782      -1.50974650
H       -0.41380144       0.00986902       1.61406186
H       -1.95420654      -0.89888579       0.84974410
H       -1.64218283       0.79101881      -1.41097010
H       -2.06938250       1.49756803       0.15064683
H        0.00280056       2.64785203      -0.62854906
H        0.26917869       0.63786755       1.43272519
17
Frame=6 idx=008418 GeodesicLength=0.8608219271124375 rxn_smarts="[O:1]([C@@:2]1([H:9])[C:3]([H:10])([H:11])[C:4]([H:12])([H:13])[C:5]([H:14])([H:15])[C:6]([H:16])=[C:7]1[H:17])[H:8]>>[H:12][H:17].[O:1]([C:2](=[C:7]=[C:6]([C:5]([C:4](=[C:3]([H:10])[H:11])[H:13])([H:14])[H:15])[H:16])[H:9])[H:8]"
O        2.15623711      -1.09066386       0.74688112
C        1.40593473      -0.47179272      -0.26882252
C       -0.22549538      -1.31550859      -0.43871457
C       -1.17257570      -0.45844566       0.24437397
C       -1.32917803       0.87887337      -0.37400420
C        0.04577782       1.57669207      -0.44831185
C        1.18090536       0.95663564      -0.11407913
H        2.38945181      -0.43688205       1.40864795
H        1.92791357      -0.67110967      -1.20956932
H       -0.17551311      -2.33701702      -0.06659534
H       -0.41690768      -1.33824932      -1.51439011
H       -0.41589612       0.01567635       1.63497830
H       -1.95482319      -0.89635800       0.85090430
H       -1.64524746       0.78509842      -1.41931896
H       -2.06802104       1.49739614       0.13950766
H        0.00345019       2.64896526      -0.61869822
H        0.29398711       0.65668964       1.44721090
17
Frame=7 idx=008418 GeodesicLength=1.0042245651769501 rxn_smarts="[O:1]([C@@:2]1([H:9])[C:3]([H:10])([H:11])[C:4]([H:12])([H:13])[C:5]([H:14])([H:15])[C:6]([H:16])=[C:7]1[H:17])[H:8]>>[H:12][H:17].[O:1]([C:2](=[C:7]=[C:6]([C:5]([C:4](=[C:3]([H:10])[H:11])[H:13])([H:14])[H:15])[H:16])[H:9])[H:8]"
O        2.19037745      -1.08198869       0.72722035
C        1.42469754      -0.46119916      -0.27449390
C       -0.24284800      -1.32797608      -0.44493805
C       -1.17059474      -0.45921579       0.24656045
C       -1.32837111       0.87657650      -0.38427865
C        0.04388131       1.57471362      -0.45648744
C        1.17450816       0.95758788      -0.10223359
H        2.36394681      -0.45543390       1.43199319
H        1.94532293      -0.64847290      -1.21813541
H       -0.19282326      -2.34763411      -0.06791552
H       -0.44260293      -1.35736647      -1.51882087
H       -0.41876521       0.02160332       1.65648698
H       -1.95544506      -0.89366585       0.85196958
H       -1.64791384       0.77903023      -1.42792956
H       -2.06678357       1.49687920       0.12798117
H        0.00382014       2.64972534      -0.60907768
H        0.31959339       0.67683685       1.46209896
17
Frame=8 idx=008418 GeodesicLength=1.1476790706605806 rxn_smarts="[O:1]([C@@:2]1([H:9])[C:3]([H:10])([H:11])[C:4]([H:12])([H:13])[C:5]([H:14])([H:15])[C:6]([H:16])=[C:7]1[H:17])[H:8]>>[H:12][H:17].[O:1]([C:2](=[C:7]=[C:6]([C:5]([C:4](=[C:3]([H:10])[H:11])[H:13])([H:14])[H:15])[H:16])[H:9])[H:8]"
O        2.22505380      -1.07090409       0.70841720
C        1.44419359      -0.44968483      -0.28006846
C       -0.26080941      -1.34082084      -0.45118375
C       -1.16844421      -0.46012866       0.24867316
C       -1.32746384       0.87407456      -0.39472827
C        0.04200261       1.57280476      -0.46428838
C        1.16789073       0.95858523      -0.09030610
H        2.33775249      -0.47800563       1.45336317
H        1.96374975      -0.62474997      -1.22630972
H       -0.21037321      -2.35851056      -0.06897160
H       -0.46921790      -1.37695830      -1.52312752
H       -0.42244077       0.02761730       1.67867025
H       -1.95602577      -0.89086285       0.85298449
H       -1.65025863       0.77284867      -1.43679939
H       -2.06565373       1.49605204       0.11614954
H        0.00390207       2.65017993      -0.59987152
H        0.34614242       0.69846327       1.47739690
17
Frame=9 idx=008418 GeodesicLength=1.2909931214687358 rxn_smarts="[O:1]([C@@:2]1([H:9])[C:3]([H:10])([H:11])[C:4]([H:12])([H:13])[C:5]([H:14])([H:15])[C:6]([H:16])=[C:7]1[H:17])[H:8]>>[H:12][H:17].[O:1]([C:2](=[C:7]=[C:6]([C:5]([C:4](=[C:3]([H:10])[H:11])[H:13])([H:14])[H:15])[H:16])[H:9])[H:8]"
O        2.26013422      -1.05717933       0.69075294
C        1.46448800      -0.43723521      -0.28547349
C       -0.27948284      -1.35396543      -0.45748726
C       -1.16612825      -0.46119367       0.25069109
C       -1.32642659       0.87125228      -0.40528183
C        0.04019595       1.57078487      -0.47177348
C        1.16109397       0.95949413      -0.07842252
H        2.31071601      -0.50445762       1.47233317
H        1.98345079      -0.60000222      -1.23385384
H       -0.22833563      -2.36950775      -0.06992338
H       -0.49683837      -1.39686370      -1.52724410
H       -0.42700784       0.03370125       1.70137525
H       -1.95658633      -0.88789701       0.85392744
H       -1.65231482       0.76647001      -1.44574497
H       -2.06454850       1.49473874       0.10412202
H        0.00376047       2.65015285      -0.59092102
H        0.37382978       0.72170780       1.49292399
17
Frame=10 idx=008418 GeodesicLength=1.4342982946765577 rxn_smarts="[O:1]([C@@:2]1([H:9])[C:3]([H:10])([H:11])[C:4]([H:12])([H:13])[C:5]([H:14])([H:15])[C:6]([H:16])=[C:7]1[H:17])[H:8]>>[H:12][H:17].[O:1]([C:2](=[C:7]=[C:6]([C:5]([C:4](=[C:3]([H:10])[H:11])[H:13])([H:14])[H:15])[H:16])[H:9])[H:8]"
O        2.29543173      -1.04085800       0.67469423
C        1.48559836      -0.42386439      -0.29060578
C       -0.29893403      -1.36752541      -0.46396440
C       -1.16361513      -0.46248116       0.25261999
C       -1.32531534       0.86818584      -0.41592397
C        0.03837789       1.56872509      -0.47898576
C        1.15406216       0.96032916      -0.06657657
H        2.28318866      -0.53482268       1.48869879
H        2.00459283      -0.57427438      -1.24060469
H       -0.24676752      -2.38087265      -0.07097102
H       -0.52557699      -1.41708490      -1.53136455
H       -0.43247604       0.03977077       1.72475792
H       -1.95703511      -0.88487184       0.85485108
H       -1.65424228       0.76001259      -1.45482065
H       -2.06348236       1.49308098       0.09200425
H        0.00333653       2.64977738      -0.58253414
H        0.40285666       0.74677361       1.50872527
17
Frame=11 idx=008418 GeodesicLength=1.5775526146487495 rxn_smarts="[O:1]([C@@:2]1([H:9])[C:3]([H:10])([H:11])[C:4]([H:12])([H:13])[C:5]([H:14])([H:15])[C:6]([H:16])=[C:7]1[H:17])[H:8]>>[H:12][H:17].[O:1]([C:2](=[C:7]=[C:6]([C:5]([C:4](=[C:3]([H:10])[H:11])[H:13])([H:14])[H:15])[H:16])[H:9])[H:8]"
O        2.33076190      -1.02182913       0.66066165
C        1.50759029      -0.40957317      -0.29536809
C       -0.31927810      -1.38149554      -0.47070577
C       -1.16090010      -0.46403648       0.25444509
C       -1.32414245       0.86482295      -0.42659090
C        0.03655528       1.56651600      -0.48600001
C        1.14680838       0.96100206      -0.05485714
H        2.25522600      -0.56893378       1.50209448
H        2.02746693      -0.54762016      -1.24632247
H       -0.26583466      -2.39261527      -0.07232591
H       -0.55556873      -1.43751120      -1.53554551
H       -0.43890899       0.04575351       1.74878175
H       -1.95735872      -0.88180321       0.85576643
H       -1.65615912       0.75346771      -1.46390884
H       -2.06240544       1.49101505       0.07994108
H        0.00265757       2.64896889      -0.57472420
H        0.43348997       0.77387176       1.52465835
17
Frame=12 idx=008418 GeodesicLength=1.7207675531671505 rxn_smarts="[O:1]([C@@:2]1([H:9])[C:3]([H:10])([H:11])[C:4]([H:12])([H:13])[C:5]([H:14])([H:15])[C:6]([H:16])=[C:7]1[H:17])[H:8]>>[H:12][H:17].[O:1]([C:2](=[C:7]=[C:6]([C:5]([C:4](=[C:3]([H:10])[H:11])[H:13])([H:14])[H:15])[H:16])[H:9])[H:8]"
O        2.36593238      -0.99996947       0.64912923
C        1.53055402      -0.39435830      -0.29964581
C       -0.34066661      -1.39585808      -0.47782258
C       -1.15798908      -0.46591592       0.25614062
C       -1.32292860       0.86108951      -0.43720582
C        0.03475135       1.56401699      -0.49289972
C        1.13936727       0.96141111      -0.04335844
H        2.22688485      -0.60654899       1.51213525
H        2.05242809      -0.52007786      -1.25072708
H       -0.28575027      -2.40472664      -0.07423411
H       -0.58700777      -1.45801300      -1.53985760
H       -0.44636176       0.05154394       1.77339559
H       -1.95756157      -0.87871655       0.85667509
H       -1.65822489       0.74681061      -1.47286550
H       -2.06125882       1.48844611       0.06810851
H        0.00177170       2.64760017      -0.56750351
H        0.46605971       0.80326636       1.54053588
17
Frame=13 idx=008418 GeodesicLength=1.8640048767604087 rxn_smarts="[O:1]([C@@:2]1([H:9])[C:3]([H:10])([H:11])[C:4]([H:12])([H:13])[C:5]([H:14])([H:15])[C:6]([H:16])=[C:7]1[H:17])[H:8]>>[H:12][H:17].[O:1]([C:2](=[C:7]=[C:6]([C:5]([C:4](=[C:3]([H:10])[H:11])[H:13])([H:14])[H:15])[H:16])[H:9])[H:8]"
O        2.40050891      -0.97543842       0.64059251
C        1.55445362      -0.37820654      -0.30331485
C       -0.36322284      -1.41076585      -0.48543672
C       -1.15486151      -0.46825915       0.25771537
C       -1.32167692       0.85704899      -0.44771890
C        0.03292387       1.56129494      -0.49973921
C        1.13165054       0.96158955      -0.03206999
H        2.19872957      -0.64736678       1.51855082
H        2.07966264      -0.49159011      -1.25360517
H       -0.30668685      -2.41752208      -0.07690792
H       -0.62002874      -1.47860528      -1.54448366
H       -0.45495811       0.05689251       1.79876819
H       -1.95758144      -0.87580508       0.85763200
H       -1.66051597       0.74018210      -1.48168627
H       -2.05996835       1.48550284       0.05667311
H        0.00072560       2.64581276      -0.56125195
H        0.50084597       0.83523561       1.55628264
17
Frame=14 idx=008418 GeodesicLength=2.0071738460297297 rxn_smarts="[O:1]([C@@:2]1([H:9])[C:3]([H:10])([H:11])[C:4]([H:12])([H:13])[C:5]([H:14])([H:15])[C:6]([H:16])=[C:7]1[H:17])[H:8]>>[H:12][H:17].[O:1]([C:2](=[C:7]=[C:6]([C:5]([C:4](=[C:3]([H:10])[H:11])[H:13])([H:14])[H:15])[H:16])[H:9])[H:8]"
O        2.43416922      -0.94846062       0.63564631
C        1.57941110      -0.36121752      -0.30614624
C       -0.38717942      -1.42614168      -0.49374578
C       -1.15157932      -0.47111770       0.25906440
C       -1.32048121       0.85261435      -0.45802692
C        0.03107718       1.55806881      -0.50659221
C        1.12369509       0.96128230      -0.02104767
H        2.17144278      -0.69037113       1.52102166
H        2.10962968      -0.46228284      -1.25447761
H       -0.32899018      -2.43092598      -0.08077776
H       -0.65494566      -1.49902598      -1.54956137
H       -0.46474344       0.06150175       1.82476444
H       -1.95748036      -0.87304748       0.85852409
H       -1.66335340       0.73361279      -1.49016339
H       -2.05850816       1.48207389       0.04588922
H       -0.00043140       2.64331285      -0.55598664
H        0.53826750       0.87012422       1.57161548
17
Frame=15 idx=008418 GeodesicLength=2.150254548760994 rxn_smarts="[O:1]([C@@:2]1([H:9])[C:3]([H:10])([H:11])[C:4]([H:12])([H:13])[C:5]([H:14])([H:15])[C:6]([H:16])=[C:7]1[H:17])[H:8]>>[H:12][H:17].[O:1]([C:2](=[C:7]=[C:6]([C:5]([C:4](=[C:3]([H:10])[H:11])[H:13])([H:14])[H:15])[H:16])[H:9])[H:8]"
O        2.46650645      -0.91936925       0.63465571
C        1.60545589      -0.34339262      -0.30796752
C       -0.41275378      -1.44202024      -0.50290310
C       -1.14816256      -0.47462247       0.26012147
C       -1.31935492       0.84774237      -0.46804480
C        0.02923664       1.55419062      -0.51351247
C        1.11547446       0.96036155      -0.01026598
H        2.14564515      -0.73469535       1.51946846
H        2.14258652      -0.43203080      -1.25299634
H       -0.35297316      -2.44504181      -0.08614276
H       -0.69206152      -1.51916623      -1.55521054
H       -0.47583982       0.06496319       1.85138406
H       -1.95727092      -0.87056549       0.85928197
H       -1.66689634       0.72717100      -1.49815833
H       -2.05676960       1.47812637       0.03597150
H       -0.00157442       2.63996545      -0.55189971
H        0.57875193       0.90838371       1.58621837
17
Frame=16 idx=008418 GeodesicLength=2.2933371872224777 rxn_smarts="[O:1]([C@@:2]1([H:9])[C:3]([H:10])([H:11])[C:4]([H:12])([H:13])[C:5]([H:14])([H:15])[C:6]([H:16])=[C:7]1[H:17])[H:8]>>[H:12][H:17].[O:1]([C:2](=[C:7]=[C:6]([C:5]([C:4](=[C:3]([H:10])[H:11])[H:13])([H:14])[H:15])[H:16])[H:9])[H:8]"
O        2.49717492      -0.88855791       0.63785762
C        1.63264547      -0.32470469      -0.30863568
C       -0.44017312      -1.45848030      -0.51307783
C       -1.14462530      -0.47894098       0.26082462
C       -1.31830268       0.84238424      -0.47768260
C        0.02745028       1.54953508      -0.52055661
C        1.10697369       0.95872278       0.00032258
H        2.12177228      -0.77953799       1.51401408
H        2.17878432      -0.40061411      -1.24887076
H       -0.37894150      -2.46002960      -0.09330013
H       -0.73172827      -1.53898744      -1.56157104
H       -0.48839486       0.06681086       1.87867997
H       -1.95697096      -0.86852633       0.85985404
H       -1.67129827       0.72091201      -1.50554359
H       -2.05463106       1.47362917       0.02716430
H       -0.00255052       2.63568997      -0.54919669
H        0.62281559       0.95069524       1.59971769
