17
Frame=0 idx=008506 GeodesicLength=0.0 rxn_smarts="[C:1]([C@@:2]1([H:11])[C:3]([H:12])([H:13])[C@@:4]2([H:14])[O:5][C:6]([H:15])([H:16])[C@@:7]12[H:17])([H:8])([H:9])[H:10]>>[C:1]([C:2]([C:3]([C@@:4]1([H:14])[O:5][C:6]([H:15])([H:16])[C:7]1)([H:12])[H:13])([H:11])[H:17])([H:8])([H:9])[H:10]"
C        1.67117740      -0.56565765      -0.29464906
C        0.89095716       0.41296611       0.53994766
C        0.02242346       1.44484208      -0.18726761
C       -1.30216017       0.73283859      -0.13646992
O       -1.38952171      -0.34446180      -1.10262941
C       -1.32658377      -1.29387686      -0.02218912
C       -1.11310798      -0.24294127       1.04144115
H        2.03062866      -1.40877403       0.29828181
H        2.54793836      -0.05960299      -0.70975803
H        1.08354829      -0.93814226      -1.13306473
H        1.50953226       0.84288708       1.33225121
H       -0.02647588       2.38064536       0.37173176
H        0.36306433       1.66493517      -1.20164982
H       -2.20213394       1.35246047      -0.15794292
H       -0.57138390      -2.07256008      -0.16559947
H       -2.29731146      -1.78242053       0.13191339
H        0.10940895      -0.12313747       1.39565316
17
Frame=1 idx=008506 GeodesicLength=0.06395724151566966 rxn_smarts="[C:1]([C@@:2]1([H:11])[C:3]([H:12])([H:13])[C@@:4]2([H:14])[O:5][C:6]([H:15])([H:16])[C@@:7]12[H:17])([H:8])([H:9])[H:10]>>[C:1]([C:2]([C:3]([C@@:4]1([H:14])[O:5][C:6]([H:15])([H:16])[C:7]1)([H:12])[H:13])([H:11])[H:17])([H:8])([H:9])[H:10]"
C        1.67951980      -0.56281473      -0.29216865
C        0.89061721       0.41041516       0.54262234
C        0.02420461       1.44237350      -0.18861146
C       -1.30185459       0.73099565      -0.13831732
O       -1.39812572      -0.34289695      -1.10624120
C       -1.34041606      -1.29447866      -0.02762119
C       -1.11162726      -0.24659042       1.03488388
H        2.04983394      -1.40006674       0.30241663
H        2.54946256      -0.05034216      -0.71354814
H        1.09398677      -0.94527700      -1.12766979
H        1.51265282       0.85181567       1.32596131
H       -0.02512753       2.38040280       0.36664409
H        0.36278544       1.65918029      -1.20430052
H       -2.20117417       1.35243725      -0.14727902
H       -0.58820171      -2.07586975      -0.17317841
H       -2.31211722      -1.78020805       0.12782970
H        0.11558112      -0.12907586       1.41857774
17
Frame=2 idx=008506 GeodesicLength=0.12791407256006182 rxn_smarts="[C:1]([C@@:2]1([H:11])[C:3]([H:12])([H:13])[C@@:4]2([H:14])[O:5][C:6]([H:15])([H:16])[C@@:7]12[H:17])([H:8])([H:9])[H:10]>>[C:1]([C:2]([C:3]([C@@:4]1([H:14])[O:5][C:6]([H:15])([H:16])[C:7]1)([H:12])[H:13])([H:11])[H:17])([H:8])([H:9])[H:10]"
C        1.68800718      -0.55987055      -0.28960983
C        0.89030715       0.40784356       0.54532678
C        0.02601468       1.43981348      -0.19007485
C       -1.30155959       0.72911296      -0.14011086
O       -1.40695688      -0.34119844      -1.10987486
C       -1.35442829      -1.29501447      -0.03316860
C       -1.10981775      -0.25048202       1.02819838
H        2.06941189      -1.39090708       0.30671386
H        2.55090703      -0.04099499      -0.71742793
H        1.10461256      -0.95259720      -1.12195715
H        1.51548964       0.86058615       1.31975720
H       -0.02370355       2.38010568       0.36134741
H        0.36249935       1.65322697      -1.20708691
H       -2.20009082       1.35231619      -0.13626396
H       -0.60534069      -2.07917317      -0.18115267
H       -2.32711987      -1.77780553       0.12383161
H        0.12176794      -0.13496154       1.44155238
17
Frame=3 idx=008506 GeodesicLength=0.19186690713878768 rxn_smarts="[C:1]([C@@:2]1([H:11])[C:3]([H:12])([H:13])[C@@:4]2([H:14])[O:5][C:6]([H:15])([H:16])[C@@:7]12[H:17])([H:8])([H:9])[H:10]>>[C:1]([C:2]([C:3]([C@@:4]1([H:14])[O:5][C:6]([H:15])([H:16])[C:7]1)([H:12])[H:13])([H:11])[H:17])([H:8])([H:9])[H:10]"
C        1.69663986      -0.55682408      -0.28697341
C        0.89003253       0.40525436       0.54805490
C        0.02785336       1.43716116      -0.19165622
C       -1.30127371       0.72718829      -0.14185011
O       -1.41601642      -0.33936233      -1.11352779
C       -1.36861966      -1.29548044      -0.03882907
C       -1.10768926      -0.25462326       1.02137523
H        2.08935693      -1.38127983       0.31117111
H        2.55226652      -0.03157383      -0.72140681
H        1.11543179      -0.96010612      -1.11591717
H        1.51804959       0.86920003       1.31364417
H       -0.02220635       2.37975065       0.35584444
H        0.36220390       1.64707590      -1.21000651
H       -2.19887407       1.35208943      -0.12489912
H       -0.62280662      -2.08246617      -0.18952623
H       -2.34231526      -1.77521243       0.11991990
H        0.12796684      -0.14079133       1.46458270
17
Frame=4 idx=008506 GeodesicLength=0.2558134362951423 rxn_smarts="[C:1]([C@@:2]1([H:11])[C:3]([H:12])([H:13])[C@@:4]2([H:14])[O:5][C:6]([H:15])([H:16])[C@@:7]12[H:17])([H:8])([H:9])[H:10]>>[C:1]([C:2]([C:3]([C@@:4]1([H:14])[O:5][C:6]([H:15])([H:16])[C:7]1)([H:12])[H:13])([H:11])[H:17])([H:8])([H:9])[H:10]"
C        1.70541770      -0.55367465      -0.28426015
C        0.88979814       0.40265037       0.55080078
C        0.02972017       1.43441566      -0.19335449
C       -1.30099578       0.72521980      -0.14353469
O       -1.42530622      -0.33738419      -1.11719725
C       -1.38298922      -1.29587260      -0.04460073
C       -1.10525108      -0.25902140       1.01440397
H        2.10966214      -1.37117052       0.31578687
H        2.55353532      -0.02208943      -0.72549433
H        1.12645130      -0.96780714      -1.10953862
H        1.52033942       0.87765922       1.30762630
H       -0.02063848       2.37933457       0.35013720
H        0.36189679       1.64072706      -1.21305706
H       -2.19751218       1.35174897      -0.11318447
H       -0.64060478      -2.08574387      -0.19830378
H       -2.35769864      -1.77242832       0.11609535
H        0.13417540      -0.14656354       1.48767508
17
Frame=5 idx=008506 GeodesicLength=0.31975049302768765 rxn_smarts="[C:1]([C@@:2]1([H:11])[C:3]([H:12])([H:13])[C@@:4]2([H:14])[O:5][C:6]([H:15])([H:16])[C@@:7]12[H:17])([H:8])([H:9])[H:10]>>[C:1]([C:2]([C:3]([C@@:4]1([H:14])[O:5][C:6]([H:15])([H:16])[C:7]1)([H:12])[H:13])([H:11])[H:17])([H:8])([H:9])[H:10]"
C        1.71434039      -0.55042117      -0.28147125
C        0.88960844       0.40003431       0.55355919
C        0.03161472       1.43157642      -0.19516800
C       -1.30072471       0.72320563      -0.14516380
O       -1.43482745      -0.33525959      -1.12088059
C       -1.39753497      -1.29618724      -0.05048123
C       -1.10251198      -0.26368349       1.00727409
H        2.13031736      -1.36056599       0.32055782
H        2.55470850      -0.01255588      -0.72969897
H        1.13767871      -0.97570151      -1.10281118
H        1.52236697       0.88596628       1.30170653
H       -0.01900222       2.37885483       0.34422898
H        0.36157605       1.63418154      -1.21623595
H       -2.19599720       1.35128648      -0.10112230
H       -0.65873949      -2.08900165      -0.20748887
H       -2.37326459      -1.76945321       0.11235911
H        0.14039149      -0.15227576       1.51083643
17
Frame=6 idx=008506 GeodesicLength=0.38367682125623415 rxn_smarts="[C:1]([C@@:2]1([H:11])[C:3]([H:12])([H:13])[C@@:4]2([H:14])[O:5][C:6]([H:15])([H:16])[C@@:7]12[H:17])([H:8])([H:9])[H:10]>>[C:1]([C:2]([C:3]([C@@:4]1([H:14])[O:5][C:6]([H:15])([H:16])[C:7]1)([H:12])[H:13])([H:11])[H:17])([H:8])([H:9])[H:10]"
C        1.72340749      -0.54706264      -0.27860787
C        0.88946731       0.39740839       0.55632436
C        0.03353624       1.42864242      -0.19709598
C       -1.30045949       0.72114378      -0.14673722
O       -1.44458251      -0.33298369      -1.12457511
C       -1.41225564      -1.29642019      -0.05646877
C       -1.09948002      -0.26861686       0.99997333
H        2.15131504      -1.34945062       0.32548314
H        2.55578103      -0.00298630      -0.73402874
H        1.14912194      -0.98379089      -1.09572353
H        1.52413873       0.89412411       1.29588746
H       -0.01730055       2.37830786       0.33812060
H        0.36123930       1.62743833      -1.21954130
H       -2.19431562       1.35069306      -0.08870956
H       -0.67721702      -2.09223308      -0.21708838
H       -2.38900740      -1.76628660       0.10871309
H        0.14661117      -0.15792708       1.53407447
17
Frame=7 idx=008506 GeodesicLength=0.4475896092996521 rxn_smarts="[C:1]([C@@:2]1([H:11])[C:3]([H:12])([H:13])[C@@:4]2([H:14])[O:5][C:6]([H:15])([H:16])[C@@:7]12[H:17])([H:8])([H:9])[H:10]>>[C:1]([C:2]([C:3]([C@@:4]1([H:14])[O:5][C:6]([H:15])([H:16])[C:7]1)([H:12])[H:13])([H:11])[H:17])([H:8])([H:9])[H:10]"
C        1.73261854      -0.54359891      -0.27566952
C        0.88937800       0.39477431       0.55909161
C        0.03548454       1.42561252      -0.19913777
C       -1.30019897       0.71903211      -0.14825518
O       -1.45457402      -0.33055166      -1.12827732
C       -1.42714892      -1.29656765      -0.06256105
C       -1.09616304      -0.27382824       0.99248979
H        2.17264333      -1.33781108       0.33055500
H        2.55674857       0.00660597      -0.73848908
H        1.16078957      -0.99207490      -1.08826527
H        1.52566125       0.90213570       1.29017257
H       -0.01553550       2.37769099       0.33181401
H        0.36088572       1.62049696      -1.22297132
H       -2.19245906       1.34996038      -0.07594711
H       -0.69604202      -2.09543212      -0.22710658
H       -2.40492023      -1.76292887       0.10516008
H        0.15283224      -0.16351551       1.55739713
17
Frame=8 idx=008506 GeodesicLength=0.5114876939099782 rxn_smarts="[C:1]([C@@:2]1([H:11])[C:3]([H:12])([H:13])[C@@:4]2([H:14])[O:5][C:6]([H:15])([H:16])[C@@:7]12[H:17])([H:8])([H:9])[H:10]>>[C:1]([C:2]([C:3]([C@@:4]1([H:14])[O:5][C:6]([H:15])([H:16])[C:7]1)([H:12])[H:13])([H:11])[H:17])([H:8])([H:9])[H:10]"
C        1.74197308      -0.54002808      -0.27265840
C        0.88934353       0.39213385       0.56185582
C        0.03745886       1.42248578      -0.20129257
C       -1.29994227       0.71686899      -0.14971686
O       -1.46480556      -0.32795745      -1.13198364
C       -1.44221253      -1.29662561      -0.06875664
C       -1.09256784      -0.27932505       0.98480994
H        2.19428957      -1.32563445       0.33577343
H        2.55760686       0.01620607      -0.74308698
H        1.17269111      -1.00055272      -1.08042559
H        1.52694136       0.91000463       1.28456240
H       -0.01370960       2.37700120       0.32531028
H        0.36051297       1.61335658      -1.22652404
H       -2.19041596       1.34907924      -0.06283299
H       -0.71521911      -2.09859167      -0.23754968
H       -2.42099572      -1.75938053       0.10170272
H        0.15905125      -0.16904080       1.58081280
17
Frame=9 idx=008506 GeodesicLength=0.5753681035457332 rxn_smarts="[C:1]([C@@:2]1([H:11])[C:3]([H:12])([H:13])[C@@:4]2([H:14])[O:5][C:6]([H:15])([H:16])[C@@:7]12[H:17])([H:8])([H:9])[H:10]>>[C:1]([C:2]([C:3]([C@@:4]1([H:14])[O:5][C:6]([H:15])([H:16])[C:7]1)([H:12])[H:13])([H:11])[H:17])([H:8])([H:9])[H:10]"
C        1.75147049      -0.53634947      -0.26957470
C        0.88936666       0.38948870       0.56461234
C        0.03945886       1.41926152      -0.20356015
C       -1.29968876       0.71465275      -0.15112225
O       -1.47527941      -0.32519586      -1.13569025
C       -1.45744257      -1.29659050      -0.07505261
C       -1.08870098      -0.28511318       0.97692030
H        2.21623613      -1.31291138       0.34113049
H        2.55835254       0.02580080      -0.74782568
H        1.18483716      -1.00922110      -1.07219574
H        1.52798533       0.91773487       1.27905913
H       -0.01182446       2.37623650       0.31861043
H        0.36011982       1.60601649      -1.23019873
H       -2.18817674       1.34803954      -0.04936627
H       -0.73475233      -2.10170473      -0.24842152
H       -2.43722562      -1.75564260       0.09834489
H        0.16526388      -0.17450236       1.60433033
17
Frame=10 idx=008506 GeodesicLength=0.6392302328758048 rxn_smarts="[C:1]([C@@:2]1([H:11])[C:3]([H:12])([H:13])[C@@:4]2([H:14])[O:5][C:6]([H:15])([H:16])[C@@:7]12[H:17])([H:8])([H:9])[H:10]>>[C:1]([C:2]([C:3]([C@@:4]1([H:14])[O:5][C:6]([H:15])([H:16])[C:7]1)([H:12])[H:13])([H:11])[H:17])([H:8])([H:9])[H:10]"
C        1.76110875      -0.53256284      -0.26641928
C        0.88944901       0.38683963       0.56735692
C        0.04148394       1.41593810      -0.20594038
C       -1.29943767       0.71238205      -0.15247027
O       -1.48600122      -0.32225993      -1.13939288
C       -1.47283736      -1.29645772      -0.08144698
C       -1.08456821      -0.29120021       0.96880596
H        2.23847368      -1.29962549       0.34662195
H        2.55898320       0.03537373      -0.75270846
H        1.19723756      -1.01807709      -1.06356419
H        1.52879885       0.92532917       1.27366279
H       -0.00988244       2.37539369       0.31171430
H        0.35970450       1.59847388      -1.23399364
H       -2.18573058       1.34683151      -0.03554614
H       -0.75464727      -2.10476213      -0.25973000
H       -2.45360201      -1.75171526       0.09509109
H        0.17146727      -0.17990111       1.62795922
17
Frame=11 idx=008506 GeodesicLength=0.7030721730296755 rxn_smarts="[C:1]([C@@:2]1([H:11])[C:3]([H:12])([H:13])[C@@:4]2([H:14])[O:5][C:6]([H:15])([H:16])[C@@:7]12[H:17])([H:8])([H:9])[H:10]>>[C:1]([C:2]([C:3]([C@@:4]1([H:14])[O:5][C:6]([H:15])([H:16])[C:7]1)([H:12])[H:13])([H:11])[H:17])([H:8])([H:9])[H:10]"
C        1.77088645      -0.52866677      -0.26319360
C        0.88959224       0.38418770       0.57008529
C        0.04353349       1.41251451      -0.20843341
C       -1.29918834       0.71005484      -0.15376101
O       -1.49697580      -0.31914287      -1.14308665
C       -1.48839324      -1.29622305      -0.08793737
C       -1.08017512      -0.29759250       0.96045181
H        2.26098541      -1.28576449       0.35224050
H        2.55949794       0.04490572      -0.75773540
H        1.20990391      -1.02711457      -1.05452250
H        1.52938715       0.93279100       1.26837403
H       -0.00788580       2.37447011       0.30462202
H        0.35926563       1.59072721      -1.23790808
H       -2.18306807       1.34544458      -0.02137085
H       -0.77490768      -2.10775453      -0.27148094
H       -2.47011586      -1.74760010       0.09194704
H        0.17765769      -0.18523678       1.65170913
17
Frame=12 idx=008506 GeodesicLength=0.7668926189273406 rxn_smarts="[C:1]([C@@:2]1([H:11])[C:3]([H:12])([H:13])[C@@:4]2([H:14])[O:5][C:6]([H:15])([H:16])[C@@:7]12[H:17])([H:8])([H:9])[H:10]>>[C:1]([C:2]([C:3]([C@@:4]1([H:14])[O:5][C:6]([H:15])([H:16])[C:7]1)([H:12])[H:13])([H:11])[H:17])([H:8])([H:9])[H:10]"
C        1.78080243      -0.52466092      -0.25989704
C        0.88979718       0.38153327       0.57279364
C        0.04560702       1.40898883      -0.21104010
C       -1.29894032       0.70766956      -0.15499407
O       -1.50820860      -0.31583768      -1.14676663
C       -1.50410719      -1.29588239      -0.09452081
C       -1.07552671      -0.30429677       0.95184128
H        2.28375404      -1.27131628       0.35797866
H        2.55989503       0.05438226      -0.76290685
H        1.22284867      -1.03632655      -1.04506053
H        1.52975502       0.94012465       1.26319215
H       -0.00583621       2.37346291       0.29733183
H        0.35880203       1.58277291      -1.24194157
H       -2.18017652       1.34386753      -0.00683708
H       -0.79553897      -2.11067192      -0.28368121
H       -2.48675832      -1.74329813       0.08891837
H        0.18383142      -0.19051126       1.67558999
17
Frame=13 idx=008506 GeodesicLength=0.8306892857017905 rxn_smarts="[C:1]([C@@:2]1([H:11])[C:3]([H:12])([H:13])[C@@:4]2([H:14])[O:5][C:6]([H:15])([H:16])[C@@:7]12[H:17])([H:8])([H:9])[H:10]>>[C:1]([C:2]([C:3]([C@@:4]1([H:14])[O:5][C:6]([H:15])([H:16])[C:7]1)([H:12])[H:13])([H:11])[H:17])([H:8])([H:9])[H:10]"
C        1.79085518      -0.52054359      -0.25653154
C        0.89006471       0.37887691       0.57547770
C        0.04770423       1.40536000      -0.21376148
C       -1.29869325       0.70522521      -0.15616864
O       -1.51970614      -0.31233668      -1.15042623
C       -1.51997470      -1.29543203      -0.10119412
C       -1.07062714      -0.31131919       0.94295743
H        2.30675671      -1.25627357       0.36382945
H        2.56017611       0.06378686      -0.76821986
H        1.23608497      -1.04570333      -1.03517191
H        1.52990703       0.94733329       1.25811688
H       -0.00373472       2.37236997       0.28984275
H        0.35831242       1.57460831      -1.24609439
H       -2.17704818       1.34208965       0.00805552
H       -0.81654451      -2.11350362      -0.29633620
H       -2.50351771      -1.73881229       0.08601274
H        0.18998498      -0.19572588       1.69961188
17
Frame=14 idx=008506 GeodesicLength=0.8944606547383809 rxn_smarts="[C:1]([C@@:2]1([H:11])[C:3]([H:12])([H:13])[C@@:4]2([H:14])[O:5][C:6]([H:15])([H:16])[C@@:7]12[H:17])([H:8])([H:9])[H:10]>>[C:1]([C:2]([C:3]([C@@:4]1([H:14])[O:5][C:6]([H:15])([H:16])[C:7]1)([H:12])[H:13])([H:11])[H:17])([H:8])([H:9])[H:10]"
C        1.80104291      -0.51631427      -0.25309655
C        0.89039455       0.37621838       0.57813363
C        0.04982442       1.40162576      -0.21659950
C       -1.29844675       0.70272007      -0.15728484
O       -1.53147625      -0.30863141      -1.15405938
C       -1.53599287      -1.29486695      -0.10795425
C       -1.06548071      -0.31866591       0.93378144
H        2.32997857      -1.24062343       0.36978453
H        2.56034230       0.07310135      -0.77367101
H        1.24962652      -1.05523435      -1.02484861
H        1.52984537       0.95441974       1.25314777
H       -0.00158321       2.37118851       0.28215129
H        0.35779533       1.56622843      -1.25036716
H       -2.17366873       1.34009779       0.02331269
H       -0.83792950      -2.11623715      -0.30945367
H       -2.52038483      -1.73414403       0.08323822
H        0.19611288      -0.20088253       1.72378541
17
Frame=15 idx=008506 GeodesicLength=0.958204811332702 rxn_smarts="[C:1]([C@@:2]1([H:11])[C:3]([H:12])([H:13])[C@@:4]2([H:14])[O:5][C:6]([H:15])([H:16])[C@@:7]12[H:17])([H:8])([H:9])[H:10]>>[C:1]([C:2]([C:3]([C@@:4]1([H:14])[O:5][C:6]([H:15])([H:16])[C:7]1)([H:12])[H:13])([H:11])[H:17])([H:8])([H:9])[H:10]"
C        1.81136416      -0.51197153      -0.24959229
C        0.89078624       0.37355739       0.58075789
C        0.05196728       1.39778435      -0.21955600
C       -1.29820063       0.70015303      -0.15834212
O       -1.54352687      -0.30471329      -1.15765857
C       -1.55215732      -1.29418311      -0.11479748
C       -1.06009137      -0.32634245       0.92429439
H        2.35339666      -1.22435815       0.37583406
H        2.56039711       0.08230771      -0.77925375
H        1.26348775      -1.06490581      -1.01408555
H        1.52957306       0.96138751       1.24828332
H        0.00061728       2.36991603       0.27425456
H        0.35724972       1.55762875      -1.25476093
H       -2.17002866       1.33788008       0.03893612
H       -0.85969755      -2.11885982      -0.32303928
H       -2.53734785      -1.72929657       0.08060406
H        0.20221097      -0.20598412       1.74812159
17
Frame=16 idx=008506 GeodesicLength=1.021920063450611 rxn_smarts="[C:1]([C@@:2]1([H:11])[C:3]([H:12])([H:13])[C@@:4]2([H:14])[O:5][C:6]([H:15])([H:16])[C@@:7]12[H:17])([H:8])([H:9])[H:10]>>[C:1]([C:2]([C:3]([C@@:4]1([H:14])[O:5][C:6]([H:15])([H:16])[C:7]1)([H:12])[H:13])([H:11])[H:17])([H:8])([H:9])[H:10]"
C        1.82181669      -0.50751445      -0.24601958
C        0.89123821       0.37089258       0.58334658
C        0.05413227       1.39383317      -0.22263389
C       -1.29795532       0.69752306      -0.15934015
O       -1.55586853      -0.30057214      -1.16121531
C       -1.56846515      -1.29337590      -0.12172032
C       -1.05446321      -0.33435458       0.91447553
H        2.37699361      -1.20746675       0.38197057
H        2.56034588       0.09138889      -0.78495930
H        1.27768358      -1.07470411      -1.00287768
H        1.52909105       0.96823875       1.24352223
H        0.00286625       2.36854961       0.26614769
H        0.35667408       1.54880297      -1.25927763
H       -2.16611506       1.33542374       0.05493041
H       -0.88185414      -2.12135744      -0.33710027
H       -2.55439584      -1.72427307       0.07812037
H        0.20827563      -0.21103434       1.77263075
