14
Frame=0 idx=000386 GeodesicLength=0.0 rxn_smarts="[C:1]([C:2]([C@@:3]([O:4][H:13])([C:5](=[O:6])[H:14])[H:12])([H:10])[H:11])([H:7])([H:8])[H:9]>>[C-:5]#[O+:6].[C:1](/[C:2](=[C:3](/[O:4][H:13])[H:12])[H:11])([H:7])([H:8])[H:9].[H:10][H:14]"
C       -1.73493991      -0.49624553      -0.35554907
C       -0.29385048      -0.73389754       0.02009724
C        0.34548540       0.14572263       0.87459423
O        1.44630778      -0.31262208       1.55708383
C        1.30654068       1.34464960      -0.58485827
O        2.35541649       1.78708678      -0.47595311
H       -2.00641642      -1.05204418      -1.25377592
H       -1.91177128       0.56303567      -0.55867580
H       -2.41501787      -0.79890306       0.44411542
H        0.34149977      -0.40143920      -1.27048056
H        0.06346653      -1.75975110       0.03662324
H       -0.19911216       0.96626130       1.33163832
H        1.95478666       0.42975511       1.89018336
H        0.74760477       0.31839154      -1.65504294
14
Frame=1 idx=000386 GeodesicLength=0.1139813418324938 rxn_smarts="[C:1]([C:2]([C@@:3]([O:4][H:13])([C:5](=[O:6])[H:14])[H:12])([H:10])[H:11])([H:7])([H:8])[H:9]>>[C-:5]#[O+:6].[C:1](/[C:2](=[C:3](/[O:4][H:13])[H:12])[H:11])([H:7])([H:8])[H:9].[H:10][H:14]"
C       -1.75482567      -0.52649996      -0.33030157
C       -0.29378405      -0.70721370      -0.00584682
C        0.34142704       0.17729525       0.84962884
O        1.39413952      -0.29262750       1.59709354
C        1.39557012       1.32160460      -0.58831690
O        2.46207860       1.71140788      -0.44498533
H       -2.03179871      -1.07339385      -1.23241097
H       -1.98646977       0.52765325      -0.50129105
H       -2.39163465      -0.88054335       0.48397462
H        0.31035291      -0.36510002      -1.31931693
H        0.09050783      -1.72398397      -0.02142167
H       -0.19793288       1.01892698       1.27573775
H        1.91510799       0.44192189       1.92824351
H        0.74726170       0.37055248      -1.69078702
14
Frame=2 idx=000386 GeodesicLength=0.22317126423176195 rxn_smarts="[C:1]([C:2]([C@@:3]([O:4][H:13])([C:5](=[O:6])[H:14])[H:12])([H:10])[H:11])([H:7])([H:8])[H:9]>>[C-:5]#[O+:6].[C:1](/[C:2](=[C:3](/[O:4][H:13])[H:12])[H:11])([H:7])([H:8])[H:9].[H:10][H:14]"
C       -1.77218617      -0.55706981      -0.30396672
C       -0.29485369      -0.67941517      -0.03286063
C        0.33698664       0.20921546       0.82402940
O        1.33801793      -0.26948184       1.63426750
C        1.48256570       1.29238496      -0.59090839
O        2.56280034       1.62836339      -0.41113246
H       -2.05646116      -1.09338905      -1.21021524
H       -2.05771116       0.48891968      -0.43817559
H       -2.36133796      -0.96238484       0.52237785
H        0.27647321      -0.32404834      -1.36831725
H        0.11586883      -1.68547470      -0.08069704
H       -0.19556102       1.07233476       1.21673170
H        1.87304917       0.45612933       1.96266918
H        0.75234933       0.42391617      -1.72380231
14
Frame=3 idx=000386 GeodesicLength=0.32816553409170546 rxn_smarts="[C:1]([C:2]([C@@:3]([O:4][H:13])([C:5](=[O:6])[H:14])[H:12])([H:10])[H:11])([H:7])([H:8])[H:9]>>[C-:5]#[O+:6].[C:1](/[C:2](=[C:3](/[O:4][H:13])[H:12])[H:11])([H:7])([H:8])[H:9].[H:10][H:14]"
C       -1.78681273      -0.58706083      -0.27706313
C       -0.29737733      -0.65098457      -0.06028919
C        0.33231362       0.24084052       0.79826936
O        1.27964120      -0.24350728       1.66749211
C        1.56510046       1.25781500      -0.59267877
O        2.65414977       1.54175359      -0.37437178
H       -2.08029945      -1.11069523      -1.18782531
H       -2.12378543       0.44782509      -0.36968404
H       -2.32482406      -1.04300470       0.55788886
H        0.24086282      -0.27978519      -1.41640752
H        0.13818748      -1.64518375      -0.14000017
H       -0.19177239       1.12506163       1.15628163
H        1.83001715       0.47201751       1.99261026
H        0.76459886       0.47490822      -1.75422231
14
Frame=4 idx=000386 GeodesicLength=0.42995660770774863 rxn_smarts="[C:1]([C:2]([C@@:3]([O:4][H:13])([C:5](=[O:6])[H:14])[H:12])([H:10])[H:11])([H:7])([H:8])[H:9]>>[C-:5]#[O+:6].[C:1](/[C:2](=[C:3](/[O:4][H:13])[H:12])[H:11])([H:7])([H:8])[H:9].[H:10][H:14]"
C       -1.79882857      -0.61576983      -0.25001683
C       -0.30157309      -0.62237587      -0.08761425
C        0.32759671       0.27162175       0.77273328
O        1.22068348      -0.21526859       1.69615780
C        1.64166369       1.21908083      -0.59364169
O        2.73418897       1.45578744      -0.33479308
H       -2.10360307      -1.12428433      -1.16569516
H       -2.18349404       0.40527448      -0.29634187
H       -2.28321230      -1.12133053       0.58936473
H        0.20461522      -0.23388859      -1.46289224
H        0.15640103      -1.60414074      -0.19843166
H       -0.18648179       1.17594178       1.09599707
H        1.78723453       0.48908956       2.01790206
H        0.78480925       0.52026265      -1.78272817
14
Frame=5 idx=000386 GeodesicLength=0.5293260225404252 rxn_smarts="[C:1]([C:2]([C@@:3]([O:4][H:13])([C:5](=[O:6])[H:14])[H:12])([H:10])[H:11])([H:7])([H:8])[H:9]>>[C-:5]#[O+:6].[C:1](/[C:2](=[C:3](/[O:4][H:13])[H:12])[H:11])([H:7])([H:8])[H:9].[H:10][H:14]"
C       -1.80842601      -0.64289780      -0.22301317
C       -0.30749211      -0.59378717      -0.11459861
C        0.32294967       0.30125124       0.74754194
O        1.16212170      -0.18531846       1.72021296
C        1.71196691       1.17697377      -0.59371545
O        2.80266108       1.37336452      -0.29249886
H       -2.12676926      -1.13383283      -1.14369971
H       -2.23623744       0.36164267      -0.21885689
H       -2.23734445      -1.19671853       0.61626753
H        0.16832889      -0.18706807      -1.50751613
H        0.17013453      -1.56289808      -0.25573299
H       -0.17974132       1.22433351       1.03670887
H        1.74522381       0.50682961       2.03889209
H        0.81262399       0.55812562      -1.80999157
14
Frame=6 idx=000386 GeodesicLength=0.6269645666244674 rxn_smarts="[C:1]([C:2]([C@@:3]([O:4][H:13])([C:5](=[O:6])[H:14])[H:12])([H:10])[H:11])([H:7])([H:8])[H:9]>>[C-:5]#[O+:6].[C:1](/[C:2](=[C:3](/[O:4][H:13])[H:12])[H:11])([H:7])([H:8])[H:9].[H:10][H:14]"
C       -1.81583247      -0.66838541      -0.19626654
C       -0.31506991      -0.56527937      -0.14112185
C        0.31842726       0.32970177       0.72281680
O        1.10453039      -0.15391723       1.74010660
C        1.77602128       1.13250828      -0.59270840
O        2.86051071       1.29538474      -0.24815898
H       -2.15014705      -1.13906507      -1.12190805
H       -2.28187557       0.31700859      -0.13736179
H       -2.18787960      -1.26926985       0.63793901
H        0.13262340      -0.13980980      -1.55023971
H        0.17946325      -1.52176537      -0.31189522
H       -0.17180769       1.27005550       0.97904279
H        1.70415407       0.52516342       2.05628941
H        0.84688192       0.58766979      -1.83653407
14
Frame=7 idx=000386 GeodesicLength=0.7233506994874385 rxn_smarts="[C:1]([C:2]([C@@:3]([O:4][H:13])([C:5](=[O:6])[H:14])[H:12])([H:10])[H:11])([H:7])([H:8])[H:9]>>[C-:5]#[O+:6].[C:1](/[C:2](=[C:3](/[O:4][H:13])[H:12])[H:11])([H:7])([H:8])[H:9].[H:10][H:14]"
C       -1.82127670      -0.69221944      -0.16985939
C       -0.32427250      -0.53693228      -0.16711833
C        0.31411355       0.35680731       0.69861500
O        1.04831781      -0.12155249       1.75620504
C        1.83433437       1.08589100      -0.59054799
O        2.90848546       1.22368120      -0.20193042
H       -2.17413851      -1.14014479      -1.09994227
H       -2.32015811       0.27140824      -0.05267805
H       -2.13559755      -1.33863854       0.65417074
H        0.09776216      -0.09238275      -1.59117411
H        0.18442202      -1.48099372      -0.36700559
H       -0.16267467       1.31300552       0.92326801
H        1.66419073       0.54368527       2.07063231
H        0.88649194       0.60838547      -1.86263495
14
Frame=8 idx=000386 GeodesicLength=0.8188268208209826 rxn_smarts="[C:1]([C:2]([C@@:3]([O:4][H:13])([C:5](=[O:6])[H:14])[H:12])([H:10])[H:11])([H:7])([H:8])[H:9]>>[C-:5]#[O+:6].[C:1](/[C:2](=[C:3](/[O:4][H:13])[H:12])[H:11])([H:7])([H:8])[H:9].[H:10][H:14]"
C       -1.82486799      -0.71458926      -0.14391489
C       -0.33496329      -0.50869645      -0.19253591
C        0.30998542       0.38266042       0.67502728
O        0.99351961      -0.08827829       1.76912784
C        1.88737337       1.03744952      -0.58705581
O        2.94796235       1.15762125      -0.15451859
H       -2.19881810      -1.13749387      -1.07750984
H       -2.35101275       0.22459615       0.03449598
H       -2.08103361      -1.40489227       0.66468634
H        0.06409687      -0.04492169      -1.63044163
H        0.18539362      -1.44056139      -0.42112697
H       -0.15251652       1.35338381       0.86944980
H        1.62523613       0.56245862       2.08252238
H        0.92964490       0.62126347      -1.88820598
14
Frame=9 idx=000386 GeodesicLength=0.9136538920019183 rxn_smarts="[C:1]([C:2]([C@@:3]([O:4][H:13])([C:5](=[O:6])[H:14])[H:12])([H:10])[H:11])([H:7])([H:8])[H:9]>>[C-:5]#[O+:6].[C:1](/[C:2](=[C:3](/[O:4][H:13])[H:12])[H:11])([H:7])([H:8])[H:9].[H:10][H:14]"
C       -1.82678154      -0.73556763      -0.11849501
C       -0.34708576      -0.48064907      -0.21736649
C        0.30612706       0.40712977       0.65204575
O        0.94020276      -0.05438486       1.77930969
C        1.93584018       0.98662194      -0.58221181
O        2.97972937       1.09837672      -0.10604736
H       -2.22441946      -1.13144676      -1.05419468
H       -2.37432882       0.17653631       0.12343682
H       -2.02485677      -1.46781097       0.66944903
H        0.03177314       0.00227285      -1.66826143
H        0.18250907      -1.40062203      -0.47435412
H       -0.14111355       1.39129614       0.81741471
H        1.58724869       0.58127550       2.09242844
H        0.97515562       0.62697208      -1.91315354
14
Frame=10 idx=000386 GeodesicLength=1.0080827693891576 rxn_smarts="[C:1]([C:2]([C@@:3]([O:4][H:13])([C:5](=[O:6])[H:14])[H:12])([H:10])[H:11])([H:7])([H:8])[H:9]>>[C-:5]#[O+:6].[C:1](/[C:2](=[C:3](/[O:4][H:13])[H:12])[H:11])([H:7])([H:8])[H:9].[H:10][H:14]"
C       -1.82702031      -0.75549215      -0.09364686
C       -0.36050867      -0.45266906      -0.24158348
C        0.30243739       0.43043729       0.62971629
O        0.88806100      -0.01956820       1.78733305
C        1.98016806       0.93326978      -0.57578719
O        3.00505323       1.04403440      -0.05721838
H       -2.25076581      -1.12282681      -1.02957752
H       -2.39015348       0.12682169       0.21332145
H       -1.96738433      -1.52749725       0.66850529
H        0.00079381       0.04924445      -1.70481793
H        0.17625090      -1.36093537      -0.52675966
H       -0.12856579       1.42711558       0.76687723
H        1.55000745       0.60044330       2.10074987
H        1.02162655       0.62762235      -1.93711216
14
Frame=11 idx=000386 GeodesicLength=1.102231985471382 rxn_smarts="[C:1]([C:2]([C@@:3]([O:4][H:13])([C:5](=[O:6])[H:14])[H:12])([H:10])[H:11])([H:7])([H:8])[H:9]>>[C-:5]#[O+:6].[C:1](/[C:2](=[C:3](/[O:4][H:13])[H:12])[H:11])([H:7])([H:8])[H:9].[H:10][H:14]"
C       -1.82558093      -0.77461773      -0.06937698
C       -0.37516767      -0.42465881      -0.26514911
C        0.29883977       0.45271008       0.60806444
O        0.83691175       0.01634543       1.79356760
C        2.02063018       0.87704923      -0.56755670
O        3.02469465       0.99362032      -0.00847277
H       -2.27768374      -1.11236739      -1.00322553
H       -2.39855189       0.07520943       0.30328280
H       -1.90895437      -1.58389113       0.66204251
H       -0.02913853       0.09612245      -1.74024619
H        0.16694797      -1.32126628      -0.57844811
H       -0.11484145       1.46109919       0.71758411
H        1.51342550       0.62006156       2.10773035
H        1.06846874       0.62458365      -1.95979641
14
Frame=12 idx=000386 GeodesicLength=1.1963661782339707 rxn_smarts="[C:1]([C:2]([C@@:3]([O:4][H:13])([C:5](=[O:6])[H:14])[H:12])([H:10])[H:11])([H:7])([H:8])[H:9]>>[C-:5]#[O+:6].[C:1](/[C:2](=[C:3](/[O:4][H:13])[H:12])[H:11])([H:7])([H:8])[H:9].[H:10][H:14]"
C       -1.82236002      -0.79341149      -0.04567124
C       -0.39100743      -0.39632830      -0.28805063
C        0.29511023       0.47443132       0.58714017
O        0.78634196       0.05404080       1.79842866
C        2.05724423       0.81835451      -0.55725713
O        3.03969109       0.94383556       0.03958501
H       -2.30481768      -1.10116346      -0.97476284
H       -2.39974292       0.02113448       0.39265094
H       -1.84951394      -1.63721105       0.65030477
H       -0.05853398       0.14349346      -1.77467082
H        0.15510570      -1.28102199      -0.62965449
H       -0.10023262       1.49375616       0.66935026
H        1.47732392       0.64067052       2.11358896
H        1.11539145       0.61941949      -1.98098162
14
Frame=13 idx=000386 GeodesicLength=1.2903862665753039 rxn_smarts="[C:1]([C:2]([C@@:3]([O:4][H:13])([C:5](=[O:6])[H:14])[H:12])([H:10])[H:11])([H:7])([H:8])[H:9]>>[C-:5]#[O+:6].[C:1](/[C:2](=[C:3](/[O:4][H:13])[H:12])[H:11])([H:7])([H:8])[H:9].[H:10][H:14]"
C       -1.81738489      -0.81173237      -0.02250252
C       -0.40811045      -0.36776289      -0.31030896
C        0.29138673       0.49525632       0.56677161
O        0.73636342       0.09314709       1.80188966
C        2.09023566       0.75554779      -0.54479003
O        3.04961328       0.89732308       0.08729111
H       -2.33218727      -1.08921413      -0.94376342
H       -2.39334892      -0.03514950       0.48116829
H       -1.78940161      -1.68723027       0.63334214
H       -0.08782351       0.19145849      -1.80813988
H        0.14041635      -1.24027171      -0.68058816
H       -0.08402885       1.52492971       0.62170809
H        1.44153367       0.66187130       2.11841434
H        1.16273638       0.61182709      -2.00049227
14
Frame=14 idx=000386 GeodesicLength=1.3846106132905642 rxn_smarts="[C:1]([C:2]([C@@:3]([O:4][H:13])([C:5](=[O:6])[H:14])[H:12])([H:10])[H:11])([H:7])([H:8])[H:9]>>[C-:5]#[O+:6].[C:1](/[C:2](=[C:3](/[O:4][H:13])[H:12])[H:11])([H:7])([H:8])[H:9].[H:10][H:14]"
C       -1.81028624      -0.83031528       0.00010492
C       -0.42642440      -0.33836609      -0.33179811
C        0.28718534       0.51624832       0.54715315
O        0.68653703       0.13503754       1.80432453
C        2.11889135       0.69072226      -0.52990043
O        3.05581356       0.84739091       0.13388945
H       -2.35899875      -1.07808799      -0.91004555
H       -2.37979527      -0.09462181       0.56798012
H       -1.72804083      -1.73432286       0.61140839
H       -0.11791205       0.24123089      -1.84056670
H        0.12369038      -1.19782756      -0.73141832
H       -0.06724175       1.55546422       0.57484729
H        1.40604289       0.68472493       2.12226766
H        1.21053874       0.60272252      -2.01824640
14
Frame=15 idx=000386 GeodesicLength=1.4790994515890534 rxn_smarts="[C:1]([C:2]([C@@:3]([O:4][H:13])([C:5](=[O:6])[H:14])[H:12])([H:10])[H:11])([H:7])([H:8])[H:9]>>[C-:5]#[O+:6].[C:1](/[C:2](=[C:3](/[O:4][H:13])[H:12])[H:11])([H:7])([H:8])[H:9].[H:10][H:14]"
C       -1.80083364      -0.84925972       0.02215763
C       -0.44605879      -0.30795860      -0.35249318
C        0.28245069       0.53756167       0.52816609
O        0.63676384       0.17995986       1.80567085
C        2.14297594       0.62340355      -0.51254765
O        3.05815200       0.79389033       0.17983912
H       -2.38498864      -1.06811390      -0.87328667
H       -2.35875115      -0.15747325       0.65286290
H       -1.66522507      -1.77845720       0.58441788
H       -0.14949822       0.29338436      -1.87185732
H        0.10482537      -1.15325783      -0.78235205
H       -0.04966898       1.58554221       0.52845218
H        1.37074012       0.70927275       2.12514019
H        1.25911653       0.59150577      -2.03416998
14
Frame=16 idx=000386 GeodesicLength=1.5740596208533717 rxn_smarts="[C:1]([C:2]([C@@:3]([O:4][H:13])([C:5](=[O:6])[H:14])[H:12])([H:10])[H:11])([H:7])([H:8])[H:9]>>[C-:5]#[O+:6].[C:1](/[C:2](=[C:3](/[O:4][H:13])[H:12])[H:11])([H:7])([H:8])[H:9].[H:10][H:14]"
C       -1.78869330      -0.86877867       0.04363444
C       -0.46714177      -0.27626749      -0.37235750
C        0.27706393       0.55955699       0.50972655
O        0.58689646       0.22843729       1.80590153
C        2.16209412       0.55350961      -0.49267971
O        3.05656738       0.73547777       0.22559560
H       -2.40975103      -1.05994618      -0.83318733
H       -2.32985239      -0.22403072       0.73547032
H       -1.60057227      -1.81958480       0.55231749
H       -0.18337591       0.34864642      -1.90190455
H        0.08377556      -1.10594726      -0.83360228
H       -0.03126153       1.61549391       0.48226451
H        1.33554018       0.73576429       2.12703901
H        1.30871056       0.57766883      -2.04821809
