12
Frame=0 idx=005559 GeodesicLength=0.0 rxn_smarts="[C:1]1([H:7])([H:8])[O:2][C@:3]1([C@@:4]1([H:10])[C:5]([H:11])([H:12])[O:6]1)[H:9]>>[C:1](=[O:2])([H:7])[H:8].[C:3]([C@@:4]1([H:10])[C:5]([H:11])([H:12])[O:6]1)[H:9]"
C        2.28528206       0.85910106       0.18947625
O        1.11349778       1.03113808      -0.02738352
C        0.37545707      -0.90878244      -0.62231105
C       -0.92504449      -1.01901397       0.01740990
C       -1.75401181       0.17724772       0.29693398
O       -2.15069636      -0.70834073      -0.69846291
H        2.72702993      -0.14237636       0.08445742
H        2.92297648       1.70355603       0.49362220
H        0.21517488      -0.46993098      -1.61943182
H       -1.06383802      -1.84516623       0.71019607
H       -1.40352862       1.14866714      -0.03608996
H       -2.34229887       0.17390069       1.21158349
12
Frame=1 idx=005559 GeodesicLength=0.06256160946007105 rxn_smarts="[C:1]1([H:7])([H:8])[O:2][C@:3]1([C@@:4]1([H:10])[C:5]([H:11])([H:12])[O:6]1)[H:9]>>[C:1](=[O:2])([H:7])[H:8].[C:3]([C@@:4]1([H:10])[C:5]([H:11])([H:12])[O:6]1)[H:9]"
C        2.28738319       0.84689495       0.18720644
O        1.10428959       1.04555923       0.03800131
C        0.38586942      -0.88081073      -0.57837194
C       -0.92402719      -1.01199559       0.03596518
C       -1.77266356       0.17898456       0.27877572
O       -2.14241170      -0.73420647      -0.70273544
H        2.75411930      -0.11036021      -0.08378786
H        2.93569774       1.65280541       0.56513729
H        0.23357683      -0.49259250      -1.59714660
H       -1.05950805      -1.82840517       0.74081634
H       -1.43462465       1.14838621      -0.07274581
H       -2.36770092       0.18574031       1.18888536
12
Frame=2 idx=005559 GeodesicLength=0.12526086692542204 rxn_smarts="[C:1]1([H:7])([H:8])[O:2][C@:3]1([C@@:4]1([H:10])[C:5]([H:11])([H:12])[O:6]1)[H:9]>>[C:1](=[O:2])([H:7])[H:8].[C:3]([C@@:4]1([H:10])[C:5]([H:11])([H:12])[O:6]1)[H:9]"
C        2.28546966       0.83014737       0.19296106
O        1.09646994       1.05835215       0.10584311
C        0.39589259      -0.85208677      -0.53904413
C       -0.92116863      -1.00491745       0.05271980
C       -1.78801447       0.17996644       0.26053119
O       -2.13239650      -0.75951680      -0.70595855
H        2.75924098      -0.06251923      -0.23705370
H        2.95496484       1.59294436       0.61967797
H        0.25265418      -0.51417787      -1.57648879
H       -1.05266180      -1.81140413       0.76953810
H       -1.46183766       1.14656860      -0.10948567
H       -2.38861312       0.19664335       1.16675963
12
Frame=3 idx=005559 GeodesicLength=0.18837854228036693 rxn_smarts="[C:1]1([H:7])([H:8])[O:2][C@:3]1([C@@:4]1([H:10])[C:5]([H:11])([H:12])[O:6]1)[H:9]>>[C:1](=[O:2])([H:7])[H:8].[C:3]([C@@:4]1([H:10])[C:5]([H:11])([H:12])[O:6]1)[H:9]"
C        2.28172525       0.81465459       0.19142467
O        1.08967464       1.06850433       0.17420569
C        0.40549380      -0.82409947      -0.50320394
C       -0.91682565      -0.99780958       0.06876650
C       -1.79987984       0.18100191       0.24210434
O       -2.12131179      -0.78433066      -0.70731740
H        2.74843104       0.00164461      -0.37962618
H        2.97452715       1.52040730       0.67494662
H        0.27150044      -0.53921780      -1.55731675
H       -1.04399331      -1.79328808       0.79837213
H       -1.48483113       1.14354684      -0.14750818
H       -2.40451060       0.20898601       1.14515250
12
Frame=4 idx=005559 GeodesicLength=0.25233897726520815 rxn_smarts="[C:1]1([H:7])([H:8])[O:2][C@:3]1([C@@:4]1([H:10])[C:5]([H:11])([H:12])[O:6]1)[H:9]>>[C:1](=[O:2])([H:7])[H:8].[C:3]([C@@:4]1([H:10])[C:5]([H:11])([H:12])[O:6]1)[H:9]"
C        2.27595353       0.79753219       0.19169411
O        1.08469478       1.07384578       0.24842094
C        0.41460688      -0.79688533      -0.47049764
C       -0.91200197      -0.99116111       0.08299927
C       -1.80905422       0.18194845       0.22348141
O       -2.10932634      -0.80726718      -0.70883646
H        2.72224005       0.07769124      -0.50582592
H        2.99755583       1.44441699       0.71367792
H        0.29162558      -0.56549481      -1.53863600
H       -1.03565665      -1.77573476       0.82479879
H       -1.50317264       1.13978709      -0.18470351
H       -2.41746483       0.22132146       1.12342709
12
Frame=5 idx=005559 GeodesicLength=0.3172629897588419 rxn_smarts="[C:1]1([H:7])([H:8])[O:2][C@:3]1([C@@:4]1([H:10])[C:5]([H:11])([H:12])[O:6]1)[H:9]>>[C:1](=[O:2])([H:7])[H:8].[C:3]([C@@:4]1([H:10])[C:5]([H:11])([H:12])[O:6]1)[H:9]"
C        2.26787418       0.78172070       0.18933122
O        1.08138731       1.07362612       0.32735269
C        0.42336342      -0.77096006      -0.44063316
C       -0.90657983      -0.98489346       0.09593421
C       -1.81526757       0.18322130       0.20448394
O       -2.09658694      -0.82859713      -0.71005687
H        2.68252996       0.16572777      -0.61787358
H        3.02144393       1.36290750       0.74227495
H        0.31281312      -0.59505119      -1.52035061
H       -1.02742273      -1.75802999       0.84998436
H       -1.51663303       1.13545477      -0.22192305
H       -2.42692182       0.23487367       1.10147590
12
Frame=6 idx=005559 GeodesicLength=0.3833835301956748 rxn_smarts="[C:1]1([H:7])([H:8])[O:2][C@:3]1([C@@:4]1([H:10])[C:5]([H:11])([H:12])[O:6]1)[H:9]>>[C:1](=[O:2])([H:7])[H:8].[C:3]([C@@:4]1([H:10])[C:5]([H:11])([H:12])[O:6]1)[H:9]"
C        2.25681142       0.76848699       0.18418600
O        1.07991502       1.06632317       0.41180467
C        0.43201087      -0.74692771      -0.41292439
C       -0.90066324      -0.97910689       0.10773571
C       -1.81830630       0.18513095       0.18485106
O       -2.08298691      -0.84800574      -0.71132219
H        2.62945751       0.26633451      -0.71637244
H        3.04538853       1.27591069       0.76002645
H        0.33572119      -0.62911762      -1.50158417
H       -1.01984618      -1.74007979       0.87414608
H       -1.52459630       1.13078123      -0.25931385
H       -2.43290562       0.25027022       1.07876707
12
Frame=7 idx=005559 GeodesicLength=0.4508211363810426 rxn_smarts="[C:1]1([H:7])([H:8])[O:2][C@:3]1([C@@:4]1([H:10])[C:5]([H:11])([H:12])[O:6]1)[H:9]>>[C:1](=[O:2])([H:7])[H:8].[C:3]([C@@:4]1([H:10])[C:5]([H:11])([H:12])[O:6]1)[H:9]"
C        2.24246883       0.75733997       0.17801249
O        1.08124856       1.04913811       0.50353241
C        0.44070578      -0.72601901      -0.38647802
C       -0.89483086      -0.97424760       0.11817823
C       -1.81774261       0.18814045       0.16448847
O       -2.06842499      -0.86429663      -0.71380217
H        2.56178290       0.37879230      -0.79969649
H        3.06937998       1.18845144       0.76179995
H        0.36146126      -0.66868143      -1.48111303
H       -1.01481782      -1.72285617       0.89638874
H       -1.52547664       1.12644190      -0.29603736
H       -2.43575439       0.26779668       1.05472678
12
Frame=8 idx=005559 GeodesicLength=0.5200250965944859 rxn_smarts="[C:1]1([H:7])([H:8])[O:2][C@:3]1([C@@:4]1([H:10])[C:5]([H:11])([H:12])[O:6]1)[H:9]>>[C:1](=[O:2])([H:7])[H:8].[C:3]([C@@:4]1([H:10])[C:5]([H:11])([H:12])[O:6]1)[H:9]"
C        2.22371423       0.74965685       0.17034160
O        1.08611231       1.01974021       0.60240812
C        0.44989435      -0.70947963      -0.36065893
C       -0.88909571      -0.97055199       0.12730042
C       -1.81274923       0.19278432       0.14322233
O       -2.05265248      -0.87674701      -0.71801662
H        2.47769279       0.50297994      -0.86647610
H        3.09207482       1.10203449       0.74624389
H        0.39078949      -0.71503896      -1.45784036
H       -1.01311099      -1.70660070       0.91660675
H       -1.51785359       1.12292820      -0.33205789
H       -2.43481601       0.28829426       1.02892679
12
Frame=9 idx=005559 GeodesicLength=0.5915713969863434 rxn_smarts="[C:1]1([H:7])([H:8])[O:2][C@:3]1([C@@:4]1([H:10])[C:5]([H:11])([H:12])[O:6]1)[H:9]>>[C:1](=[O:2])([H:7])[H:8].[C:3]([C@@:4]1([H:10])[C:5]([H:11])([H:12])[O:6]1)[H:9]"
C        2.19941125       0.74601351       0.16181418
O        1.09523305       0.97710713       0.70550398
C        0.45989946      -0.69824068      -0.33552409
C       -0.88338500      -0.96811423       0.13483010
C       -1.80256940       0.19952483       0.12140414
O       -2.03559452      -0.88437501      -0.72437427
H        2.37706896       0.63429106      -0.91309523
H        3.11115898       1.02092866       0.71167354
H        0.42390692      -0.76813526      -1.43130217
H       -1.01507224      -1.69187917       0.93397197
H       -1.50092290       1.12084894      -0.36667609
H       -2.42913456       0.31203022       1.00177394
12
Frame=10 idx=005559 GeodesicLength=0.6666758159525573 rxn_smarts="[C:1]1([H:7])([H:8])[O:2][C@:3]1([C@@:4]1([H:10])[C:5]([H:11])([H:12])[O:6]1)[H:9]>>[C:1](=[O:2])([H:7])[H:8].[C:3]([C@@:4]1([H:10])[C:5]([H:11])([H:12])[O:6]1)[H:9]"
C        2.16900819       0.74500927       0.15376239
O        1.10989139       0.91984072       0.81005460
C        0.47097114      -0.69390736      -0.31091708
C       -0.87782052      -0.96718599       0.14061333
C       -1.78622164       0.20891087       0.09925376
O       -2.01710890      -0.88627642      -0.73336556
H        2.25929434       0.76775555      -0.93712747
H        3.12418798       0.95203036       0.65705844
H        0.46045648      -0.82723328      -1.40121736
H       -1.02158043      -1.67935634       0.94789801
H       -1.47337124       1.12081520      -0.39947101
H       -2.41770678       0.33959742       0.97345796
12
Frame=11 idx=005559 GeodesicLength=0.7472601461275624 rxn_smarts="[C:1]1([H:7])([H:8])[O:2][C@:3]1([C@@:4]1([H:10])[C:5]([H:11])([H:12])[O:6]1)[H:9]>>[C:1](=[O:2])([H:7])[H:8].[C:3]([C@@:4]1([H:10])[C:5]([H:11])([H:12])[O:6]1)[H:9]"
C        2.13129207       0.74830179       0.14637329
O        1.12984116       0.85083173       0.91094983
C        0.48355852      -0.69564476      -0.28757209
C       -0.87148354      -0.96716756       0.14492809
C       -1.76375000       0.22062957       0.07698600
O       -1.99704910      -0.88352306      -0.74389473
H        2.12719561       0.89791360      -0.93778987
H        3.12804790       0.89287404       0.58603380
H        0.49944269      -0.88961362      -1.36850543
H       -1.03041110      -1.66772685       0.95926933
H       -1.43688645       1.12222140      -0.43134114
H       -2.39979775       0.37090372       0.94456294
12
Frame=12 idx=005559 GeodesicLength=0.8347227762039721 rxn_smarts="[C:1]1([H:7])([H:8])[O:2][C@:3]1([C@@:4]1([H:10])[C:5]([H:11])([H:12])[O:6]1)[H:9]>>[C:1](=[O:2])([H:7])[H:8].[C:3]([C@@:4]1([H:10])[C:5]([H:11])([H:12])[O:6]1)[H:9]"
C        2.08746548       0.75209193       0.14122931
O        1.15568073       0.77172942       1.00423839
C        0.49731662      -0.70379848      -0.26613984
C       -0.86447915      -0.96792891       0.14776452
C       -1.73514126       0.23472467       0.05501940
O       -1.97579657      -0.87627609      -0.75552749
H        1.98411107       1.01767192      -0.91509187
H        3.12051035       0.85067246       0.50186166
H        0.53870007      -0.95302291      -1.33488226
H       -1.04127753      -1.65698146       0.96809282
H       -1.39225951       1.12512256      -0.46243688
H       -2.37483028       0.40599488       0.91587223
12
Frame=13 idx=005559 GeodesicLength=0.9284707108331893 rxn_smarts="[C:1]1([H:7])([H:8])[O:2][C@:3]1([C@@:4]1([H:10])[C:5]([H:11])([H:12])[O:6]1)[H:9]>>[C:1](=[O:2])([H:7])[H:8].[C:3]([C@@:4]1([H:10])[C:5]([H:11])([H:12])[O:6]1)[H:9]"
C        2.03924588       0.75687435       0.13896723
O        1.18489689       0.69065410       1.08485829
C        0.51167101      -0.71373771      -0.24863619
C       -0.85598560      -0.96819660       0.14956929
C       -1.70327813       0.24954472       0.03382495
O       -1.95450482      -0.86775008      -0.76584022
H        1.84082568       1.12172591      -0.87276081
H        3.10111557       0.81774852       0.41254771
H        0.57612365      -1.01240100      -1.30324592
H       -1.04978552      -1.64498836       0.97605604
H       -1.34588958       1.12791365      -0.49413186
H       -2.34443503       0.44261249       0.88879149
12
Frame=14 idx=005559 GeodesicLength=1.0272983349318066 rxn_smarts="[C:1]1([H:7])([H:8])[O:2][C@:3]1([C@@:4]1([H:10])[C:5]([H:11])([H:12])[O:6]1)[H:9]>>[C:1](=[O:2])([H:7])[H:8].[C:3]([C@@:4]1([H:10])[C:5]([H:11])([H:12])[O:6]1)[H:9]"
C        1.98946793       0.75952313       0.13951326
O        1.21687423       0.60981230       1.15230123
C        0.52583794      -0.72454931      -0.23544432
C       -0.84652530      -0.96780181       0.15056144
C       -1.66957291       0.26473885       0.01356630
O       -1.93417496      -0.85872806      -0.77430272
H        1.70217176       1.20806918      -0.81519436
H        3.07120393       0.79710831       0.32332723
H        0.61011346      -1.06706686      -1.27499134
H       -1.05567499      -1.63167611       0.98364234
H       -1.30003732       1.13039552      -0.52679134
H       -2.30968378       0.48017486       0.86381226
12
Frame=15 idx=005559 GeodesicLength=1.1286223921789789 rxn_smarts="[C:1]1([H:7])([H:8])[O:2][C@:3]1([C@@:4]1([H:10])[C:5]([H:11])([H:12])[O:6]1)[H:9]>>[C:1](=[O:2])([H:7])[H:8].[C:3]([C@@:4]1([H:10])[C:5]([H:11])([H:12])[O:6]1)[H:9]"
C        1.94037735       0.76048674       0.14269700
O        1.24939087       0.53338015       1.20681034
C        0.53921862      -0.73301784      -0.22714473
C       -0.83613341      -0.96620523       0.15108709
C       -1.63665657       0.27916276      -0.00575647
O       -1.91585274      -0.85121685      -0.77985385
H        1.57481570       1.27793197      -0.74772064
H        3.03348475       0.78234459       0.23875839
H        0.64022427      -1.11511758      -1.25098935
H       -1.05703428      -1.61628962       0.99185370
H       -1.25888779       1.13166594      -0.56099833
H       -2.27294677       0.51687496       0.84125686
12
Frame=16 idx=005559 GeodesicLength=1.2317523628749787 rxn_smarts="[C:1]1([H:7])([H:8])[O:2][C@:3]1([C@@:4]1([H:10])[C:5]([H:11])([H:12])[O:6]1)[H:9]>>[C:1](=[O:2])([H:7])[H:8].[C:3]([C@@:4]1([H:10])[C:5]([H:11])([H:12])[O:6]1)[H:9]"
C        1.89281016       0.75923946       0.14767483
O        1.28253858       0.46047268       1.25056622
C        0.55170472      -0.73963632      -0.22287498
C       -0.82527846      -0.96358215       0.15136241
C       -1.60474624       0.29299021      -0.02439134
O       -1.89959682      -0.84489713      -0.78290583
H        1.45784906       1.33362912      -0.67339289
H        2.98984460       0.77436727       0.15990676
H        0.66679334      -1.15819870      -1.23053391
H       -1.05493564      -1.59919097       1.00071404
H       -1.22205365       1.13187884      -0.59662842
H       -2.23492967       0.55292769       0.82050311
