16
Frame=0 idx=009730 GeodesicLength=0.0 rxn_smarts="[C:1]([C@@:2]1([O:3][H:11])[C:4]([H:12])([H:13])[N:5]2[C:6]([H:14])([H:15])[C@@:7]12[H:16])([H:8])([H:9])[H:10]>>[C:1]([C@@:2]1([O:3][H:11])[C:4]([H:12])([H:13])[N+:5]2([H:15])[C-:6]([H:14])[C@@:7]12[H:16])([H:8])([H:9])[H:10]"
C        1.32525577      -1.17304532       0.02185900
C        0.60746270       0.15211539       0.04195662
O        1.59693603       1.14362150       0.22034153
C       -0.37656648       0.50362192      -1.09998124
N       -1.38850081       0.92815913      -0.08859886
C       -1.74763739      -0.50911979       0.80584894
C       -0.58115262       0.34511535       1.01693836
H        0.62777284      -2.00019767      -0.10625600
H        1.87150391      -1.31188356       0.95562931
H        2.04246112      -1.19283290      -0.80047746
H        1.17340194       1.99815209       0.33472665
H       -0.71211044      -0.30472740      -1.75003503
H       -0.04618770       1.34749728      -1.70670579
H       -1.53086070      -1.31438206       0.09848045
H       -2.42570016       0.48393285       0.11665975
H       -0.43607802       0.90397316       1.93961377
16
Frame=1 idx=009730 GeodesicLength=0.05577064506094038 rxn_smarts="[C:1]([C@@:2]1([O:3][H:11])[C:4]([H:12])([H:13])[N:5]2[C:6]([H:14])([H:15])[C@@:7]12[H:16])([H:8])([H:9])[H:10]>>[C:1]([C@@:2]1([O:3][H:11])[C:4]([H:12])([H:13])[N+:5]2([H:15])[C-:6]([H:14])[C@@:7]12[H:16])([H:8])([H:9])[H:10]"
C        1.32772191      -1.17329618       0.02221507
C        0.60998094       0.15195462       0.04158326
O        1.59951819       1.14365950       0.21920143
C       -0.37440162       0.50207079      -1.10063024
N       -1.39137415       0.91677058      -0.09118729
C       -1.74748095      -0.50480910       0.79684853
C       -0.57846050       0.34423466       1.01595743
H        0.62983650      -2.00031392      -0.10464858
H        1.87442338      -1.31140412       0.95583303
H        2.04451439      -1.19408538      -0.80046018
H        1.17577193       1.99790910       0.33478432
H       -0.70479099      -0.30560048      -1.75427181
H       -0.04699926       1.34995445      -1.70330554
H       -1.53478594      -1.31819287       0.09812467
H       -2.44590691       0.49539188       0.13242341
H       -0.43756692       0.90575646       1.93753251
16
Frame=2 idx=009730 GeodesicLength=0.11151304780205837 rxn_smarts="[C:1]([C@@:2]1([O:3][H:11])[C:4]([H:12])([H:13])[N:5]2[C:6]([H:14])([H:15])[C@@:7]12[H:16])([H:8])([H:9])[H:10]>>[C:1]([C@@:2]1([O:3][H:11])[C:4]([H:12])([H:13])[N+:5]2([H:15])[C-:6]([H:14])[C@@:7]12[H:16])([H:8])([H:9])[H:10]"
C        1.33014958      -1.17353738       0.02257616
C        0.61245344       0.15179911       0.04116967
O        1.60202898       1.14371176       0.21809716
C       -0.37220757       0.50053152      -1.10137388
N       -1.39431086       0.90532662      -0.09399105
C       -1.74741577      -0.50059154       0.78775106
C       -0.57590267       0.34333216       1.01482408
H        0.63187455      -2.00042079      -0.10309258
H        1.87723486      -1.31091654       0.95608141
H        2.04659068      -1.19531866      -0.80038298
H        1.17805894       1.99767484       0.33486205
H       -0.69736387      -0.30644703      -1.75860237
H       -0.04780794       1.35242262      -1.69994472
H       -1.53874758      -1.32208082       0.09787839
H       -2.46539441       0.50699134       0.14886780
H       -0.43924037       0.90752280       1.93527978
16
Frame=3 idx=009730 GeodesicLength=0.16722791537607118 rxn_smarts="[C:1]([C@@:2]1([O:3][H:11])[C:4]([H:12])([H:13])[N:5]2[C:6]([H:14])([H:15])[C@@:7]12[H:16])([H:8])([H:9])[H:10]>>[C:1]([C@@:2]1([O:3][H:11])[C:4]([H:12])([H:13])[N+:5]2([H:15])[C-:6]([H:14])[C@@:7]12[H:16])([H:8])([H:9])[H:10]"
C        1.33253245      -1.17376763       0.02294164
C        0.61487725       0.15165192       0.04071924
O        1.60447101       1.14377709       0.21702802
C       -0.36999217       0.49901059      -1.10220412
N       -1.39730201       0.89385142      -0.09699560
C       -1.74743805      -0.49646396       0.77857355
C       -0.57347955       0.34241646       1.01354455
H        0.63387856      -2.00051569      -0.10158745
H        1.87993442      -1.31042193       0.95637227
H        2.04868045      -1.19653268      -0.80024950
H        1.18027045       1.99745021       0.33496127
H       -0.68984342      -0.30725865      -1.76301581
H       -0.04861600       1.35490132      -1.69662115
H       -1.54274683      -1.32603575       0.09775502
H       -2.48413946       0.51866592       0.16591276
H       -0.44108712       0.90927137       1.93286531
16
Frame=4 idx=009730 GeodesicLength=0.22291664325637708 rxn_smarts="[C:1]([C@@:2]1([O:3][H:11])[C:4]([H:12])([H:13])[N:5]2[C:6]([H:14])([H:15])[C@@:7]12[H:16])([H:8])([H:9])[H:10]>>[C:1]([C@@:2]1([O:3][H:11])[C:4]([H:12])([H:13])[N+:5]2([H:15])[C-:6]([H:14])[C@@:7]12[H:16])([H:8])([H:9])[H:10]"
C        1.33486460      -1.17398593       0.02331063
C        0.61725042       0.15151611       0.04023566
O        1.60684821       1.14385384       0.21599281
C       -0.36776292       0.49751457      -1.10311193
N       -1.40033756       0.88236911      -0.10018458
C       -1.74754200      -0.49242206       0.76933382
C       -0.57118932       0.34149684       1.01212662
H        0.63584020      -2.00059599      -0.10013256
H        1.88251884      -1.30992205       0.95670277
H        2.05077393      -1.19772803      -0.80006402
H        1.18241555       1.99723581       0.33508314
H       -0.68224476      -0.30802662      -1.76750009
H       -0.04942546       1.35739030      -1.69333181
H       -1.54678507      -1.33004568       0.09776724
H       -2.50213064       0.53034670       0.18347239
H       -0.44309402       0.91100310       1.93029993
16
Frame=5 idx=009730 GeodesicLength=0.27858020661639793 rxn_smarts="[C:1]([C@@:2]1([O:3][H:11])[C:4]([H:12])([H:13])[N:5]2[C:6]([H:14])([H:15])[C@@:7]12[H:16])([H:8])([H:9])[H:10]>>[C:1]([C@@:2]1([O:3][H:11])[C:4]([H:12])([H:13])[N+:5]2([H:15])[C-:6]([H:14])[C@@:7]12[H:16])([H:8])([H:9])[H:10]"
C        1.33714094      -1.17419160       0.02368223
C        0.61957204       0.15139458       0.03972276
O        1.60916568       1.14394024       0.21498990
C       -0.36552668       0.49604967      -1.10408799
N       -1.40340663       0.87090327      -0.10354061
C       -1.74772058      -0.48846081       0.76004949
C       -0.56902841       0.34058250       1.01057923
H        0.63775173      -2.00065924      -0.09872690
H        1.88498627      -1.30941892       0.95706980
H        2.05286186      -1.19890577      -0.79983111
H        1.18450452       1.99703210       0.33522841
H       -0.67458338      -0.30874249      -1.77204284
H       -0.05023765       1.35988912      -1.69007356
H       -1.55086451      -1.33409709       0.09792577
H       -2.51936852       0.54196464       0.20146003
H       -0.44524668       0.91271980       1.92759539
16
Frame=6 idx=009730 GeodesicLength=0.33422021248405814 rxn_smarts="[C:1]([C@@:2]1([O:3][H:11])[C:4]([H:12])([H:13])[N:5]2[C:6]([H:14])([H:15])[C@@:7]12[H:16])([H:8])([H:9])[H:10]>>[C:1]([C@@:2]1([O:3][H:11])[C:4]([H:12])([H:13])[N+:5]2([H:15])[C-:6]([H:14])[C@@:7]12[H:16])([H:8])([H:9])[H:10]"
C        1.33935722      -1.17438426       0.02405552
C        0.62184224       0.15129003       0.03918443
O        1.61142955       1.14403432       0.21401736
C       -0.36328940       0.49462165      -1.10512296
N       -1.40649759       0.85947643      -0.10704602
C       -1.74796554      -0.48457471       0.75073762
C       -0.56699166       0.33968259       1.00891205
H        0.63960611      -2.00070320      -0.09736914
H        1.88733601      -1.30891486       0.95747003
H        2.05493551      -1.20006742      -0.79955557
H        1.18654865       1.99683935       0.33539738
H       -0.66687450      -0.30939820      -1.77663169
H       -0.05105314       1.36239732      -1.68684318
H       -1.55498765      -1.33817546       0.09823937
H       -2.53586585       0.55345201       0.21979101
H       -0.44752997       0.91442439       1.92476378
16
Frame=7 idx=009730 GeodesicLength=0.38983807301245027 rxn_smarts="[C:1]([C@@:2]1([O:3][H:11])[C:4]([H:12])([H:13])[N:5]2[C:6]([H:14])([H:15])[C@@:7]12[H:16])([H:8])([H:9])[H:10]>>[C:1]([C@@:2]1([O:3][H:11])[C:4]([H:12])([H:13])[N+:5]2([H:15])[C-:6]([H:14])[C@@:7]12[H:16])([H:8])([H:9])[H:10]"
C        1.34151014      -1.17456384       0.02442965
C        0.62406208       0.15120486       0.03862447
O        1.61364676       1.14413397       0.21307304
C       -0.36105592       0.49323565      -1.10620790
N       -1.40959852       0.84810953      -0.11068358
C       -1.74826780      -0.48075801       0.74141404
C       -0.56507276       0.33880596       1.00713497
H        0.64139720      -2.00072590      -0.09605776
H        1.88956836      -1.30841232       0.95790017
H        2.05698710      -1.20121493      -0.79924215
H        1.18855980       1.99665763       0.33558996
H       -0.65913253      -0.30998641      -1.78125488
H       -0.05187152       1.36491429      -1.68363767
H       -1.55915737      -1.34226565       0.09871437
H       -2.55164636       0.56474443       0.23838626
H       -0.44992868       0.91612074       1.92181700
16
Frame=8 idx=009730 GeodesicLength=0.445436117754014 rxn_smarts="[C:1]([C@@:2]1([O:3][H:11])[C:4]([H:12])([H:13])[N:5]2[C:6]([H:14])([H:15])[C@@:7]12[H:16])([H:8])([H:9])[H:10]>>[C:1]([C@@:2]1([O:3][H:11])[C:4]([H:12])([H:13])[N+:5]2([H:15])[C-:6]([H:14])[C@@:7]12[H:16])([H:8])([H:9])[H:10]"
C        1.34359729      -1.17473055       0.02480390
C        0.62623345       0.15114116       0.03804644
O        1.61582474       1.14423700       0.21215463
C       -0.35882982       0.49189610      -1.10733462
N       -1.41269737       0.83682159      -0.11443721
C       -1.74861772      -0.47700503       0.73209291
C       -0.56326457       0.33796100       1.00525765
H        0.64311983      -2.00072566      -0.09479103
H        1.89168446      -1.30791386       0.95835710
H        2.05900982      -1.20235058      -0.79889530
H        1.19055007       1.99648681       0.33580556
H       -0.65137052      -0.31050062      -1.78590146
H       -0.05269138       1.36743930      -1.68045437
H       -1.56337661      -1.34635244       0.09935462
H       -2.56674368       0.57578231       0.25717497
H       -0.45242801       0.91781346       1.91876622
16
Frame=9 idx=009730 GeodesicLength=0.5010154051655666 rxn_smarts="[C:1]([C@@:2]1([O:3][H:11])[C:4]([H:12])([H:13])[N:5]2[C:6]([H:14])([H:15])[C@@:7]12[H:16])([H:8])([H:9])[H:10]>>[C:1]([C@@:2]1([O:3][H:11])[C:4]([H:12])([H:13])[N+:5]2([H:15])[C-:6]([H:14])[C@@:7]12[H:16])([H:8])([H:9])[H:10]"
C        1.34561729      -1.17488483       0.02517781
C        0.62835890       0.15110065       0.03745344
O        1.61797105       1.14434133       0.21125983
C       -0.35661345       0.49060652      -1.10849609
N       -1.41578248       0.82562939      -0.11829262
C       -1.74900577      -0.47331024       0.72278602
C       -0.56155961       0.33715537       1.00328899
H        0.64477000      -2.00070120      -0.09356707
H        1.89368610      -1.30742182       0.95883825
H        2.06099839      -1.20347689      -0.79851884
H        1.19253113       1.99632668       0.33604325
H       -0.64359986      -0.31093557      -1.79056199
H       -0.05351033       1.36997132      -1.67729141
H       -1.56764883      -1.35042082       0.10016093
H       -2.58119834       0.58651260       0.27609792
H       -0.45501419       0.91950751       1.91562159
16
Frame=10 idx=009730 GeodesicLength=0.5565777298580765 rxn_smarts="[C:1]([C@@:2]1([O:3][H:11])[C:4]([H:12])([H:13])[N:5]2[C:6]([H:14])([H:15])[C@@:7]12[H:16])([H:8])([H:9])[H:10]>>[C:1]([C@@:2]1([O:3][H:11])[C:4]([H:12])([H:13])[N+:5]2([H:15])[C-:6]([H:14])[C@@:7]12[H:16])([H:8])([H:9])[H:10]"
C        1.34756947      -1.17502731       0.02555114
C        0.63044147       0.15108473       0.03684818
O        1.62009328       1.14444488       0.21038635
C       -0.35440783       0.48936968      -1.10968646
N       -1.41884265       0.81454740      -0.12223755
C       -1.74942257      -0.46966838       0.71350289
C       -0.55995031       0.33639606       1.00123700
H        0.64634465      -2.00065150      -0.09238393
H        1.89557540      -1.30693848       0.95934155
H        2.06294863      -1.20459652      -0.79811594
H        1.19451422       1.99617688       0.33630166
H       -0.63583003      -0.31128700      -1.79522838
H       -0.05432502       1.37250923      -1.67414754
H       -1.57197733      -1.35445639       0.10113180
H       -2.59505674       0.59688850       0.29510732
H       -0.45767464       0.92120822       1.91239191
16
Frame=11 idx=009730 GeodesicLength=0.6121246745303978 rxn_smarts="[C:1]([C@@:2]1([O:3][H:11])[C:4]([H:12])([H:13])[N:5]2[C:6]([H:14])([H:15])[C@@:7]12[H:16])([H:8])([H:9])[H:10]>>[C:1]([C@@:2]1([O:3][H:11])[C:4]([H:12])([H:13])[N+:5]2([H:15])[C-:6]([H:14])[C@@:7]12[H:16])([H:8])([H:9])[H:10]"
C        1.34945383      -1.17515874       0.02592391
C        0.63248454       0.15109447       0.03623292
O        1.62219880       1.14454570       0.20953203
C       -0.35221283       0.48818760      -1.11090113
N       -1.42186737       0.80358786      -0.12626197
C       -1.74985925      -0.46607443       0.70425068
C       -0.55842929       0.33568943       0.99910857
H        0.64784157      -2.00057584      -0.09123960
H        1.89735472      -1.30646590       0.95986546
H        2.06485757      -1.20571231      -0.79768908
H        1.19650994       1.99603698       0.33657918
H       -0.62806856      -0.31155170      -1.79989411
H       -0.05513124       1.37505184      -1.67102223
H       -1.57636542      -1.35844552       0.10226360
H       -2.60836878       0.60686934       0.31416728
H       -0.46039824       0.92292124       1.90908450
16
Frame=12 idx=009730 GeodesicLength=0.6676575979029907 rxn_smarts="[C:1]([C@@:2]1([O:3][H:11])[C:4]([H:12])([H:13])[N:5]2[C:6]([H:14])([H:15])[C@@:7]12[H:16])([H:8])([H:9])[H:10]>>[C:1]([C@@:2]1([O:3][H:11])[C:4]([H:12])([H:13])[N+:5]2([H:15])[C-:6]([H:14])[C@@:7]12[H:16])([H:8])([H:9])[H:10]"
C        1.35127088      -1.17528004       0.02629642
C        0.63449170       0.15113070       0.03560942
O        1.62429469       1.14464192       0.20869480
C       -0.35002726       0.48706170      -1.11213682
N       -1.42484700       0.79276085      -0.13035816
C       -1.75030763      -0.46252362       0.69503421
C       -0.55698952       0.33504118       0.99690937
H        0.64925927      -2.00047374      -0.09013208
H        1.89902629      -1.30600598       0.96040913
H        2.06672332      -1.20682718      -0.79723992
H        1.19852809       1.99590647       0.33687391
H       -0.62032101      -0.31172743      -1.80455422
H       -0.05592407       1.37759795      -1.66791570
H       -1.58081632      -1.36237547       0.10355078
H       -2.62118602       0.61642029       0.33325372
H       -0.46317541       0.92465239       1.90570513
16
Frame=13 idx=009730 GeodesicLength=0.7231775758523157 rxn_smarts="[C:1]([C@@:2]1([O:3][H:11])[C:4]([H:12])([H:13])[N:5]2[C:6]([H:14])([H:15])[C@@:7]12[H:16])([H:8])([H:9])[H:10]>>[C:1]([C@@:2]1([O:3][H:11])[C:4]([H:12])([H:13])[N+:5]2([H:15])[C-:6]([H:14])[C@@:7]12[H:16])([H:8])([H:9])[H:10]"
C        1.35302233      -1.17539262       0.02666926
C        0.63646681       0.15119390       0.03497901
O        1.62638793       1.14473175       0.20787310
C       -0.34784933       0.48599282      -1.11339209
N       -1.42777366       0.78207499      -0.13452076
C       -1.75076100      -0.45901099       0.68585627
C       -0.55562481       0.33445670       0.99464429
H        0.65059765      -2.00034540      -0.08905956
H        1.90059332      -1.30556084       0.96097291
H        2.06854611      -1.20794481      -0.79676963
H        1.20057750       1.99578501       0.33718413
H       -0.61259141      -0.31181296      -1.80920636
H       -0.05669848       1.38014641      -1.66482965
H       -1.58533376      -1.36623425       0.10498591
H       -2.63356072       0.62551224       0.35235413
H       -0.46599847       0.92640804       1.90225905
16
Frame=14 idx=009730 GeodesicLength=0.7786862446208483 rxn_smarts="[C:1]([C@@:2]1([O:3][H:11])[C:4]([H:12])([H:13])[N:5]2[C:6]([H:14])([H:15])[C@@:7]12[H:16])([H:8])([H:9])[H:10]>>[C:1]([C@@:2]1([O:3][H:11])[C:4]([H:12])([H:13])[N+:5]2([H:15])[C-:6]([H:14])[C@@:7]12[H:16])([H:8])([H:9])[H:10]"
C        1.35470664      -1.17549618       0.02704294
C        0.63841293       0.15128478       0.03434277
O        1.62848390       1.14481377       0.20706448
C       -0.34567490       0.48498148      -1.11466393
N       -1.43063678       0.77153569      -0.13874573
C       -1.75121112      -0.45553291       0.67671722
C       -0.55432850       0.33394015       0.99231551
H        0.65185363      -2.00018922      -0.08801978
H        1.90205448      -1.30513090       0.96155497
H        2.07032186      -1.20906607      -0.79627803
H        1.20266683       1.99567163       0.33750654
H       -0.60488088      -0.31180714      -1.81384478
H       -0.05744661       1.38269606      -1.66176326
H       -1.58991876      -1.37001166       0.10656331
H       -2.64554289       0.63411733       0.37146152
H       -0.46885983       0.92819318       1.89874624
16
Frame=15 idx=009730 GeodesicLength=0.8341806269671227 rxn_smarts="[C:1]([C@@:2]1([O:3][H:11])[C:4]([H:12])([H:13])[N:5]2[C:6]([H:14])([H:15])[C@@:7]12[H:16])([H:8])([H:9])[H:10]>>[C:1]([C@@:2]1([O:3][H:11])[C:4]([H:12])([H:13])[N+:5]2([H:15])[C-:6]([H:14])[C@@:7]12[H:16])([H:8])([H:9])[H:10]"
C        1.35632732      -1.17559282       0.02741844
C        0.64033430       0.15140373       0.03370377
O        1.63058967       1.14488665       0.20627013
C       -0.34350108       0.48402795      -1.11595223
N       -1.43343054       0.76115253      -0.14303010
C       -1.75165496      -0.45208123       0.66761811
C       -0.55309638       0.33349825       0.98992824
H        0.65302959      -2.00000694      -0.08701108
H        1.90341993      -1.30471717       0.96215458
H        2.07204986      -1.21019627      -0.79576965
H        1.20480311       1.99556670       0.33783964
H       -0.59719429      -0.31171044      -1.81846809
H       -0.05815938       1.38524200      -1.65872335
H       -1.59457612      -1.37369466       0.10827461
H       -2.65718632       0.64221004       0.39057080
H       -0.47175473       0.93001169       1.89517619
16
Frame=16 idx=009730 GeodesicLength=0.8896649665148915 rxn_smarts="[C:1]([C@@:2]1([O:3][H:11])[C:4]([H:12])([H:13])[N:5]2[C:6]([H:14])([H:15])[C@@:7]12[H:16])([H:8])([H:9])[H:10]>>[C:1]([C@@:2]1([O:3][H:11])[C:4]([H:12])([H:13])[N+:5]2([H:15])[C-:6]([H:14])[C@@:7]12[H:16])([H:8])([H:9])[H:10]"
C        1.35788494      -1.17568306       0.02779807
C        0.64223379       0.15155041       0.03305964
O        1.63270944       1.14494847       0.20548472
C       -0.34132393       0.48313209      -1.11725944
N       -1.43614925       0.75092653      -0.14737622
C       -1.75208703      -0.44865383       0.65855267
C       -0.55192355       0.33313248       0.98748072
H        0.65412508      -1.99979803      -0.08602781
H        1.90468699      -1.30431848       0.96277559
H        2.07373270      -1.21133897      -0.79523903
H        1.20699190       1.99546800       0.33818101
H       -0.58952555      -0.31152271      -1.82307975
H       -0.05883418       1.38778693      -1.65571028
H       -1.59930922      -1.37727534       0.11010671
H       -2.66853273       0.64977749       0.40970842
H       -0.47467940       0.93186802       1.89154496
