14
Frame=0 idx=000644 GeodesicLength=0.0 rxn_smarts="[O:1]([C@@:2]1([H:8])[C:3]([H:9])([H:10])[C@@:4]2([H:11])[C:5]([H:12])([H:13])[C@@:6]12[H:14])[H:7]>>[O:1]([C@@:2]1([H:8])[C:3]([H:9])([H:10])[C:4][C:5]([H:12])([H:13])[C:6]1([H:11])[H:14])[H:7]"
O       -0.91240275       1.82146075       0.24022279
C       -0.70758330       0.47931782       0.59355121
C       -1.06913316      -0.63181670      -0.42436076
C        0.27573778      -1.39143596      -0.39931175
C        1.26041195      -0.28865406      -0.64314343
C        0.73827795       0.02138590       0.74554313
H       -0.43334740       2.00931053      -0.56973266
H       -1.26072127       0.34444049       1.52273914
H       -1.25889515      -0.23454640      -1.42565753
H       -1.92499280      -1.23485828      -0.12712204
H        0.54126512      -1.12827010       1.05687613
H        1.01611756       0.44970560      -1.40521330
H        2.30591897      -0.57922197      -0.67663952
H        1.42934655       0.36318235       1.51224860
14
Frame=1 idx=000644 GeodesicLength=0.05624175418503731 rxn_smarts="[O:1]([C@@:2]1([H:8])[C:3]([H:9])([H:10])[C@@:4]2([H:11])[C:5]([H:12])([H:13])[C@@:6]12[H:14])[H:7]>>[O:1]([C@@:2]1([H:8])[C:3]([H:9])([H:10])[C:4][C:5]([H:12])([H:13])[C:6]1([H:11])[H:14])[H:7]"
O       -0.90963210       1.82329937       0.23810993
C       -0.70835008       0.48083230       0.59349049
C       -1.07111213      -0.62755923      -0.42657561
C        0.27257588      -1.38328131      -0.40863256
C        1.26331065      -0.28535050      -0.64010663
C        0.73605075       0.01874770       0.74794123
H       -0.43013153       2.00879368      -0.57209915
H       -1.26398072       0.34854834       1.52157804
H       -1.27698771      -0.23336226      -1.42556391
H       -1.91516250      -1.24247411      -0.11801601
H        0.54747369      -1.14864775       1.05682692
H        1.02541077       0.45061818      -1.40680932
H        2.30715122      -0.58206333      -0.67258209
H        1.42338380       0.37189893       1.51243867
14
Frame=2 idx=000644 GeodesicLength=0.11246919413029183 rxn_smarts="[O:1]([C@@:2]1([H:8])[C:3]([H:9])([H:10])[C@@:4]2([H:11])[C:5]([H:12])([H:13])[C@@:6]12[H:14])[H:7]>>[O:1]([C@@:2]1([H:8])[C:3]([H:9])([H:10])[C:4][C:5]([H:12])([H:13])[C:6]1([H:11])[H:14])[H:7]"
O       -0.90685890       1.82518567       0.23588875
C       -0.70913304       0.48243153       0.59341870
C       -1.07311847      -0.62330898      -0.42870663
C        0.26947296      -1.37495279      -0.41786906
C        1.26621702      -0.28199716      -0.63698076
C        0.73378585       0.01614879       0.75039001
H       -0.42697651       2.00822604      -0.57462698
H       -1.26725550       0.35280545       1.52040131
H       -1.29535787      -0.23238500      -1.42513878
H       -1.90512552      -1.24988414      -0.10903397
H        0.55389697      -1.16939510       1.05634122
H        1.03483324       0.45154224      -1.40830614
H        2.30834419      -0.58488717      -0.66846130
H        1.41727557       0.38047062       1.51268365
14
Frame=3 idx=000644 GeodesicLength=0.16794644930171573 rxn_smarts="[O:1]([C@@:2]1([H:8])[C:3]([H:9])([H:10])[C@@:4]2([H:11])[C:5]([H:12])([H:13])[C@@:6]12[H:14])[H:7]>>[O:1]([C@@:2]1([H:8])[C:3]([H:9])([H:10])[C:4][C:5]([H:12])([H:13])[C:6]1([H:11])[H:14])[H:7]"
O       -0.90407252       1.82706707       0.23364045
C       -0.70991144       0.48403584       0.59334265
C       -1.07513538      -0.61907483      -0.43081255
C        0.26639847      -1.36661295      -0.42707982
C        1.26914339      -0.27862089      -0.63382788
C        0.73151324       0.01351480       0.75287182
H       -0.42383187       2.00762272      -0.57720022
H       -1.27053690       0.35709015       1.51922038
H       -1.31383127      -0.23148590      -1.42454935
H       -1.89507294      -1.25717952      -0.10014204
H        0.56036566      -1.19014432       1.05569655
H        1.04428461       0.45246164      -1.40978117
H        2.30956037      -0.58768214      -0.66431760
H        1.41112658       0.38900832       1.51293878
14
Frame=4 idx=000644 GeodesicLength=0.22406285802039005 rxn_smarts="[O:1]([C@@:2]1([H:8])[C:3]([H:9])([H:10])[C@@:4]2([H:11])[C:5]([H:12])([H:13])[C@@:6]12[H:14])[H:7]>>[O:1]([C@@:2]1([H:8])[C:3]([H:9])([H:10])[C:4][C:5]([H:12])([H:13])[C:6]1([H:11])[H:14])[H:7]"
O       -0.90129985       1.82904411       0.23120183
C       -0.71072734       0.48580338       0.59324820
C       -1.07718772      -0.61484342      -0.43278101
C        0.26341370      -1.35795092      -0.43613643
C        1.27206124      -0.27517492      -0.63052060
C        0.72917202       0.01100188       0.75541938
H       -0.42080159       2.00695154      -0.58004655
H       -1.27384426       0.36164127       1.51800693
H       -1.33271808      -0.23093168      -1.42345066
H       -1.88467356      -1.26416079      -0.09141534
H        0.56722097      -1.21160281       1.05432115
H        1.05396495       0.45340126      -1.41106729
H        2.31067403      -0.59047011      -0.66006903
H        1.40474550       0.39729123       1.51328942
14
Frame=5 idx=000644 GeodesicLength=0.28020022384900245 rxn_smarts="[O:1]([C@@:2]1([H:8])[C:3]([H:9])([H:10])[C@@:4]2([H:11])[C:5]([H:12])([H:13])[C@@:6]12[H:14])[H:7]>>[O:1]([C@@:2]1([H:8])[C:3]([H:9])([H:10])[C:4][C:5]([H:12])([H:13])[C:6]1([H:11])[H:14])[H:7]"
O       -0.89853319       1.83107486       0.22864221
C       -0.71156530       0.48766631       0.59314091
C       -1.07926348      -0.61061525      -0.43466755
C        0.26047547      -1.34910150      -0.44509347
C        1.27498503      -0.27168642      -0.62711515
C        0.72678797       0.00854492       0.75801766
H       -0.41783873       2.00623157      -0.58306408
H       -1.27717503       0.36635372       1.51677325
H       -1.35186197      -0.23060433      -1.42197967
H       -1.87407479      -1.27093328      -0.08281881
H        0.57430474      -1.23345834       1.05244685
H        1.06378684       0.45434860      -1.41224055
H        2.31174205      -0.59325147      -0.65575084
H        1.39823040       0.40543061       1.51370923
14
Frame=6 idx=000644 GeodesicLength=0.33636708779619867 rxn_smarts="[O:1]([C@@:2]1([H:8])[C:3]([H:9])([H:10])[C@@:4]2([H:11])[C:5]([H:12])([H:13])[C@@:6]12[H:14])[H:7]>>[O:1]([C@@:2]1([H:8])[C:3]([H:9])([H:10])[C:4][C:5]([H:12])([H:13])[C:6]1([H:11])[H:14])[H:7]"
O       -0.89577316       1.83316025       0.22595981
C       -0.71242647       0.48962716       0.59302092
C       -1.08136280      -0.60638930      -0.43647274
C        0.25758679      -1.34006917      -0.45394697
C        1.27791234      -0.26815538      -0.62360840
C        0.72435916       0.00614834       0.76066766
H       -0.41494139       2.00546344      -0.58625203
H       -1.28053172       0.37123032       1.51551725
H       -1.37125235      -0.23051211      -1.42013484
H       -1.86328960      -1.27749050      -0.07434644
H        0.58162150      -1.25572310       1.05005261
H        1.07375153       0.45530058      -1.41329418
H        2.31276265      -0.59602386      -0.65135848
H        1.39158351       0.41343333       1.51419583
14
Frame=7 idx=000644 GeodesicLength=0.39255377044792333 rxn_smarts="[O:1]([C@@:2]1([H:8])[C:3]([H:9])([H:10])[C@@:4]2([H:11])[C:5]([H:12])([H:13])[C@@:6]12[H:14])[H:7]>>[O:1]([C@@:2]1([H:8])[C:3]([H:9])([H:10])[C:4][C:5]([H:12])([H:13])[C:6]1([H:11])[H:14])[H:7]"
O       -0.89301933       1.83530205       0.22314917
C       -0.71331241       0.49168997       0.59288729
C       -1.08348476      -0.60216519      -0.43819675
C        0.25474665      -1.33085075      -0.46269583
C        1.28084331      -0.26458204      -0.61999487
C        0.72188154       0.00381358       0.76337102
H       -0.41210834       2.00464583      -0.58961426
H       -1.28391783       0.37627802       1.51423547
H       -1.39088542      -0.23066379      -1.41790203
H       -1.85232563      -1.28383215      -0.06599308
H        0.58917882      -1.27840529       1.04710666
H        1.08386394       0.45625674      -1.41422048
H        2.31373418      -0.59878897      -0.64688643
H        1.38480526       0.42130199       1.51475410
14
Frame=8 idx=000644 GeodesicLength=0.44876165073291985 rxn_smarts="[O:1]([C@@:2]1([H:8])[C:3]([H:9])([H:10])[C@@:4]2([H:11])[C:5]([H:12])([H:13])[C@@:6]12[H:14])[H:7]>>[O:1]([C@@:2]1([H:8])[C:3]([H:9])([H:10])[C:4][C:5]([H:12])([H:13])[C:6]1([H:11])[H:14])[H:7]"
O       -0.89027301       1.83750143       0.22020764
C       -0.71422445       0.49385723       0.59273970
C       -1.08562924      -0.59794129      -0.43984039
C        0.25195442      -1.32144869      -0.47133458
C        1.28377696      -0.26096787      -0.61627347
C        0.71935367       0.00154529       0.76612779
H       -0.40933921       2.00377950      -0.59315147
H       -1.28733592       0.38149987       1.51292685
H       -1.41075089      -0.23106558      -1.41527730
H       -1.84119320      -1.28995646      -0.05775652
H        0.59697983      -1.30151095       1.04359147
H        1.09412472       0.45721404      -1.41501579
H        2.31465575      -0.60154572      -0.64233211
H        1.37790057       0.42903921       1.51538817
14
Frame=9 idx=000644 GeodesicLength=0.5050004581119352 rxn_smarts="[O:1]([C@@:2]1([H:8])[C:3]([H:9])([H:10])[C@@:4]2([H:11])[C:5]([H:12])([H:13])[C@@:6]12[H:14])[H:7]>>[O:1]([C@@:2]1([H:8])[C:3]([H:9])([H:10])[C:4][C:5]([H:12])([H:13])[C:6]1([H:11])[H:14])[H:7]"
O       -0.88753561       1.83976124       0.21713004
C       -0.71516527       0.49613377       0.59257776
C       -1.08779717      -0.59371635      -0.44140258
C        0.24920704      -1.31185877      -0.47985816
C        1.28671223      -0.25731457      -0.61243796
C        0.71677170      -0.00065154       0.76894018
H       -0.40663336       2.00286378      -0.59686746
H       -1.29079017       0.38690310       1.51158940
H       -1.43084070      -0.23172575      -1.41224469
H       -1.82988770      -1.29586147      -0.04963240
H        0.60502900      -1.32505729       1.03946627
H        1.10453827       0.45816957      -1.41567231
H        2.31552346      -0.60429959      -0.63768889
H        1.37086826       0.43665384       1.51610077
14
Frame=10 idx=000644 GeodesicLength=0.5612648318735296 rxn_smarts="[O:1]([C@@:2]1([H:8])[C:3]([H:9])([H:10])[C@@:4]2([H:11])[C:5]([H:12])([H:13])[C@@:6]12[H:14])[H:7]>>[O:1]([C@@:2]1([H:8])[C:3]([H:9])([H:10])[C:4][C:5]([H:12])([H:13])[C:6]1([H:11])[H:14])[H:7]"
O       -0.88480752       1.84208293       0.21391260
C       -0.71613639       0.49852263       0.59240065
C       -1.08998864      -0.58948815      -0.44288507
C        0.24650420      -1.30208246      -0.48826228
C        1.28964933      -0.25362314      -0.60848437
C        0.71413319      -0.00277336       0.77180958
H       -0.40398819       2.00189929      -0.60076313
H       -1.29428356       0.39249286       1.51022025
H       -1.45114403      -0.23265503      -1.40878789
H       -1.81841718      -1.30154454      -0.04161838
H        0.61332720      -1.34905293       1.03470102
H        1.11510544       0.45911955      -1.41618473
H        2.31633704      -0.60704970      -0.63295184
H        1.36370912       0.44415205       1.51689359
14
Frame=11 idx=000644 GeodesicLength=0.6175566084554673 rxn_smarts="[O:1]([C@@:2]1([H:8])[C:3]([H:9])([H:10])[C@@:4]2([H:11])[C:5]([H:12])([H:13])[C@@:6]12[H:14])[H:7]>>[O:1]([C@@:2]1([H:8])[C:3]([H:9])([H:10])[C:4][C:5]([H:12])([H:13])[C:6]1([H:11])[H:14])[H:7]"
O       -0.88208953       1.84446828       0.21055071
C       -0.71714041       0.50102801       0.59220798
C       -1.09220479      -0.58525473      -0.44428803
C        0.24384343      -1.29211616      -0.49654531
C        1.29258529      -0.24989689      -0.60440743
C        0.71143429      -0.00481533       0.77473773
H       -0.40140118       2.00088546      -0.60483947
H       -1.29782004       0.39827542       1.50881685
H       -1.47165309      -0.23386087      -1.40489694
H       -1.80678049      -1.30700757      -0.03370568
H        0.62187852      -1.37350852       1.02925885
H        1.12583161       0.46006111      -1.41654337
H        2.31709310      -0.60980148      -0.62811328
H        1.35642330       0.45154326       1.51776739
14
Frame=12 idx=000644 GeodesicLength=0.6740934934481516 rxn_smarts="[O:1]([C@@:2]1([H:8])[C:3]([H:9])([H:10])[C@@:4]2([H:11])[C:5]([H:12])([H:13])[C@@:6]12[H:14])[H:7]>>[O:1]([C@@:2]1([H:8])[C:3]([H:9])([H:10])[C:4][C:5]([H:12])([H:13])[C:6]1([H:11])[H:14])[H:7]"
O       -0.87938560       1.84691596       0.20702072
C       -0.71817418       0.50366659       0.59199932
C       -1.09443772      -0.58101889      -0.44559675
C        0.24124884      -1.28194586      -0.50466965
C        1.29553527      -0.24613498      -0.60019277
C        0.70869104      -0.00673538       0.77772154
H       -0.39889003       1.99983050      -0.60910240
H       -1.30139024       0.40427053       1.50739056
H       -1.49237923      -0.23541379      -1.40054035
H       -1.79502340      -1.31220342      -0.02591840
H        0.63065366      -1.39855719       1.02301969
H        1.13671409       0.46099429      -1.41672864
H        2.31780284      -0.61255109      -0.62315231
H        1.34903465       0.45888273       1.51874942
14
Frame=13 idx=000644 GeodesicLength=0.730629608725748 rxn_smarts="[O:1]([C@@:2]1([H:8])[C:3]([H:9])([H:10])[C@@:4]2([H:11])[C:5]([H:12])([H:13])[C@@:6]12[H:14])[H:7]>>[O:1]([C@@:2]1([H:8])[C:3]([H:9])([H:10])[C:4][C:5]([H:12])([H:13])[C:6]1([H:11])[H:14])[H:7]"
O       -0.87669366       1.84942854       0.20332661
C       -0.71924504       0.50642345       0.59177141
C       -1.09669401      -0.57678666      -0.44683359
C        0.23870092      -1.27159247      -0.51266362
C        1.29848282      -0.24234131      -0.59585119
C        0.70587179      -0.00857732       0.78076977
H       -0.39643298       1.99873140      -0.61352161
H       -1.30501572       0.41048458       1.50591101
H       -1.51329924      -0.23724355      -1.39572650
H       -1.78311228      -1.31717830      -0.01821511
H        0.63971103      -1.42408065       1.01604949
H        1.14776401       0.46191073      -1.41673996
H        2.31844727      -0.61531009      -0.61807725
H        1.34151510       0.46613164       1.51980053
14
Frame=14 idx=000644 GeodesicLength=0.7869369121128937 rxn_smarts="[O:1]([C@@:2]1([H:8])[C:3]([H:9])([H:10])[C@@:4]2([H:11])[C:5]([H:12])([H:13])[C@@:6]12[H:14])[H:7]>>[O:1]([C@@:2]1([H:8])[C:3]([H:9])([H:10])[C:4][C:5]([H:12])([H:13])[C:6]1([H:11])[H:14])[H:7]"
O       -0.87401666       1.85207208       0.19944298
C       -0.72039277       0.50936659       0.59152556
C       -1.09901651      -0.57250875      -0.44794565
C        0.23610804      -1.26096026      -0.52050434
C        1.30139757      -0.23850789      -0.59130183
C        0.70290984      -0.01035141       0.78394068
H       -0.39401268       1.99751459      -0.61830964
H       -1.30875011       0.41698575       1.50437572
H       -1.53442288      -0.23940431      -1.39022742
H       -1.77084023      -1.32193849      -0.01058308
H        0.64923473      -1.45004700       1.00796830
H        1.15906988       0.46277134      -1.41654896
H        2.31898767      -0.61807807      -0.61284957
H        1.33374411       0.47308584       1.52101725
14
Frame=15 idx=000644 GeodesicLength=0.8431314748814687 rxn_smarts="[O:1]([C@@:2]1([H:8])[C:3]([H:9])([H:10])[C@@:4]2([H:11])[C:5]([H:12])([H:13])[C@@:6]12[H:14])[H:7]>>[O:1]([C@@:2]1([H:8])[C:3]([H:9])([H:10])[C:4][C:5]([H:12])([H:13])[C:6]1([H:11])[H:14])[H:7]"
O       -0.87134126       1.85471837       0.19545770
C       -0.72154062       0.51236697       0.59126677
C       -1.10133046      -0.56825320      -0.44902055
C        0.23361103      -1.25025374      -0.52824620
C        1.30433228      -0.23465540      -0.58668269
C        0.69994263      -0.01204110       0.78712656
H       -0.39163912       1.99628805      -0.62312824
H       -1.31248059       0.42359611       1.50282028
H       -1.55561841      -0.24180464      -1.38445493
H       -1.75862648      -1.32649712      -0.00303509
H        0.65879034      -1.47638186       0.99941833
H        1.17043177       0.46362773      -1.41623603
H        2.31951294      -0.62083388      -0.60754223
H        1.32595595       0.48012372       1.52225632
14
Frame=16 idx=000644 GeodesicLength=0.8993157510756261 rxn_smarts="[O:1]([C@@:2]1([H:8])[C:3]([H:9])([H:10])[C@@:4]2([H:11])[C:5]([H:12])([H:13])[C@@:6]12[H:14])[H:7]>>[O:1]([C@@:2]1([H:8])[C:3]([H:9])([H:10])[C:4][C:5]([H:12])([H:13])[C:6]1([H:11])[H:14])[H:7]"
O       -0.86867866       1.85743695       0.19129773
C       -0.72273243       0.51550445       0.59099075
C       -1.10367385      -0.56398938      -0.45000798
C        0.23114542      -1.23935521      -0.53583887
C        1.30726785      -0.23077642      -0.58191054
C        0.69689906      -0.01363306       0.79038964
H       -0.38931405       1.99500434      -0.62814767
H       -1.31627468       0.43043891       1.50122346
H       -1.57697061      -0.24452670      -1.37817494
H       -1.74626704      -1.33082716       0.00444218
H        0.66861204      -1.50322541       0.98996621
H        1.18196486       0.46445158      -1.41573750
H        2.31998415      -0.62359938      -0.60209169
H        1.31803796       0.48709649       1.52359919
