13
Frame=0 idx=010418 GeodesicLength=0.0 rxn_smarts="[C:1]([c:2]1[c:3]([H:11])[n:4]([H:12])[c:5]([O:6][H:13])[n:7]1)([H:8])([H:9])[H:10]>>[C:1](=[C:2](/[C:3](=[N:4]/[H:12])[H:11])/[N:7]=[C:5](/[O:6][H:13])[H:10])([H:8])[H:9]"
C        1.76559970       0.49334564       0.15016537
C        0.76105221       0.30524591      -0.79712023
C        0.33202952      -1.05473092      -0.82583716
N       -0.84591366      -1.03752658      -0.25798819
C       -1.08206926       0.33297370       0.10393332
O       -2.33534703       0.57907267       0.52692705
N       -0.33499307       1.13157562      -0.63367039
H        1.89825082       1.48258504       0.56773433
H        2.59591794      -0.19951268       0.24050156
H        0.14734263       0.21129179       1.22712975
H        0.90159031      -1.95710456      -0.98966900
H       -1.38856206      -1.81982430       0.06865303
H       -2.41489802       1.53260861       0.61924058
13
Frame=1 idx=010418 GeodesicLength=0.08919713435718345 rxn_smarts="[C:1]([c:2]1[c:3]([H:11])[n:4]([H:12])[c:5]([O:6][H:13])[n:7]1)([H:8])([H:9])[H:10]>>[C:1](=[C:2](/[C:3](=[N:4]/[H:12])[H:11])/[N:7]=[C:5](/[O:6][H:13])[H:10])([H:8])[H:9]"
C        1.76481313       0.49137666       0.16047063
C        0.75843768       0.30075427      -0.78752451
C        0.32875288      -1.05939030      -0.82610575
N       -0.85349855      -1.05219398      -0.26343158
C       -1.09004102       0.33740908       0.11687778
O       -2.34295256       0.59870325       0.53076894
N       -0.33863090       1.12867807      -0.62190640
H        1.90254398       1.48463732       0.56757845
H        2.61537270      -0.18088911       0.20938579
H        0.15612941       0.19748969       1.24346619
H        0.90936649      -1.95730418      -0.97768749
H       -1.39061424      -1.84397803       0.04905714
H       -2.41967899       1.55470727       0.59905081
13
Frame=2 idx=010418 GeodesicLength=0.17831889727261144 rxn_smarts="[C:1]([c:2]1[c:3]([H:11])[n:4]([H:12])[c:5]([O:6][H:13])[n:7]1)([H:8])([H:9])[H:10]>>[C:1](=[C:2](/[C:3](=[N:4]/[H:12])[H:11])/[N:7]=[C:5](/[O:6][H:13])[H:10])([H:8])[H:9]"
C        1.76423128       0.48926563       0.17056612
C        0.75578581       0.29598456      -0.77790598
C        0.32547880      -1.06426415      -0.82633196
N       -0.86109640      -1.06717664      -0.26910413
C       -1.09797292       0.34196784       0.13008745
O       -2.35014513       0.61897020       0.53497112
N       -0.34228948       1.12551945      -0.61026081
H        1.90643988       1.48650613       0.56725381
H        2.63317896      -0.16108883       0.17883625
H        0.16532805       0.18352998       1.25980757
H        0.91692334      -1.95757172      -0.96554616
H       -1.39228101      -1.86851653       0.02873147
H       -2.42358119       1.57687409       0.57889525
13
Frame=3 idx=010418 GeodesicLength=0.2673760818464199 rxn_smarts="[C:1]([c:2]1[c:3]([H:11])[n:4]([H:12])[c:5]([O:6][H:13])[n:7]1)([H:8])([H:9])[H:10]>>[C:1](=[C:2](/[C:3](=[N:4]/[H:12])[H:11])/[N:7]=[C:5](/[O:6][H:13])[H:10])([H:8])[H:9]"
C        1.76385452       0.48708629       0.18036681
C        0.75308144       0.29093799      -0.76830644
C        0.32221441      -1.06936092      -0.82650832
N       -0.86869001      -1.08249453      -0.27499175
C       -1.10585690       0.34666755       0.14355757
O       -2.35688757       0.63987987       0.53957087
N       -0.34599746       1.12208809      -0.59879191
H        1.90988653       1.48825246       0.56674114
H        2.64927900      -0.14025872       0.14903420
H        0.17498119       0.16946234       1.27612190
H        0.92426686      -1.95791440      -0.95325694
H       -1.39355574      -1.89343810       0.00762663
H       -2.42657628       1.59909209       0.55883625
13
Frame=4 idx=010418 GeodesicLength=0.35637905324839914 rxn_smarts="[C:1]([c:2]1[c:3]([H:11])[n:4]([H:12])[c:5]([O:6][H:13])[n:7]1)([H:8])([H:9])[H:10]>>[C:1](=[C:2](/[C:3](=[N:4]/[H:12])[H:11])/[N:7]=[C:5](/[O:6][H:13])[H:10])([H:8])[H:9]"
C        1.76367383       0.48489298       0.18982342
C        0.75030944       0.28561511      -0.75873779
C        0.31896322      -1.07468635      -0.82660784
N       -0.87626762      -1.09816466      -0.28106735
C       -1.11368348       0.35153021       0.15730828
O       -2.36313370       0.66144328       0.54464090
N       -0.34978063       1.11837471      -0.58752211
H        1.91284468       1.48991774       0.56605427
H        2.66370520      -0.11851929       0.12002637
H        0.18513504       0.15532785       1.29240168
H        0.93139758      -1.95833855      -0.94080995
H       -1.39446032      -1.91873007      -0.01433552
H       -2.42870324       1.62133704       0.53882565
13
Frame=5 idx=010418 GeodesicLength=0.4453345201314761 rxn_smarts="[C:1]([c:2]1[c:3]([H:11])[n:4]([H:12])[c:5]([O:6][H:13])[n:7]1)([H:8])([H:9])[H:10]>>[C:1](=[C:2](/[C:3](=[N:4]/[H:12])[H:11])/[N:7]=[C:5](/[O:6][H:13])[H:10])([H:8])[H:9]"
C        1.76367817       0.48274904       0.19889292
C        0.74745814       0.28001591      -0.74922359
C        0.31573252      -1.08025251      -0.82661392
N       -0.88382392      -1.11420998      -0.28733540
C       -1.12145886       0.35657289       0.17131955
O       -2.36887061       0.68366864       0.55017444
N       -0.35366220       1.11436994      -0.57650187
H        1.91527850       1.49157399       0.56517278
H        2.67645768      -0.09600555       0.09192081
H        0.19580004       0.14116894       1.30862756
H        0.93832411      -1.95885574      -0.92819939
H       -1.39498755      -1.94439108      -0.03718940
H       -2.42992602       1.64359549       0.51895553
13
Frame=6 idx=010418 GeodesicLength=0.534250496023292 rxn_smarts="[C:1]([c:2]1[c:3]([H:11])[n:4]([H:12])[c:5]([O:6][H:13])[n:7]1)([H:8])([H:9])[H:10]>>[C:1](=[C:2](/[C:3](=[N:4]/[H:12])[H:11])/[N:7]=[C:5](/[O:6][H:13])[H:10])([H:8])[H:9]"
C        1.76384904       0.48069524       0.20756191
C        0.74451370       0.27413841      -0.73975124
C        0.31252440      -1.08606915      -0.82648412
N       -0.89135379      -1.13065182      -0.29376660
C       -1.12917465       0.36182003       0.18562211
O       -2.37405791       0.70657426       0.55623712
N       -0.35766645       1.11006441      -0.56573355
H        1.91716544       1.49325752       0.56411439
H        2.68762885      -0.07281115       0.06466585
H        0.20701352       0.12701926       1.32480826
H        0.94504827      -1.95947635      -0.91537394
H       -1.39518018      -1.97038956      -0.06105291
H       -2.43031021       1.66582890       0.49915270
13
Frame=7 idx=010418 GeodesicLength=0.6231368883285122 rxn_smarts="[C:1]([c:2]1[c:3]([H:11])[n:4]([H:12])[c:5]([O:6][H:13])[n:7]1)([H:8])([H:9])[H:10]>>[C:1](=[C:2](/[C:3](=[N:4]/[H:12])[H:11])/[N:7]=[C:5](/[O:6][H:13])[H:10])([H:8])[H:9]"
C        1.76417516       0.47877783       0.21580563
C        0.74146719       0.26797984      -0.73032483
C        0.30934362      -1.09214798      -0.82618902
N       -0.89885093      -1.14751629      -0.30035372
C       -1.13683215       0.36729625       0.20021553
O       -2.37867516       0.73017609       0.56284824
N       -0.36181063       1.10544877      -0.55524354
H        1.91848743       1.49502228       0.56285547
H        2.69723913      -0.04904264       0.03830805
H        0.21879304       0.11291749       1.34094260
H        0.95157491      -1.96021337      -0.90231418
H       -1.39504144      -1.99670868      -0.08599825
H       -2.42987015       1.68801041       0.47944803
13
Frame=8 idx=010418 GeodesicLength=0.7119932107222245 rxn_smarts="[C:1]([c:2]1[c:3]([H:11])[n:4]([H:12])[c:5]([O:6][H:13])[n:7]1)([H:8])([H:9])[H:10]>>[C:1](=[C:2](/[C:3](=[N:4]/[H:12])[H:11])/[N:7]=[C:5](/[O:6][H:13])[H:10])([H:8])[H:9]"
C        1.76463651       0.47702960       0.22362430
C        0.73830643       0.26153655      -0.72092462
C        0.30619351      -1.09850113      -0.82568414
N       -0.90631293      -1.16482877      -0.30707387
C       -1.14442340       0.37302693       0.21512776
O       -2.38268682       0.75450025       0.57004814
N       -0.36611704       1.10051269      -0.54502393
H        1.91923396       1.49690347       0.56140033
H        2.70537659      -0.02477936       0.01277634
H        0.23116750       0.09889453       1.35704339
H        0.95790727      -1.96107853      -0.88895287
H       -1.39461014      -2.02330529      -0.11215079
H       -2.42867144       1.71008904       0.45978996
13
Frame=9 idx=010418 GeodesicLength=0.800917764414437 rxn_smarts="[C:1]([c:2]1[c:3]([H:11])[n:4]([H:12])[c:5]([O:6][H:13])[n:7]1)([H:8])([H:9])[H:10]>>[C:1](=[C:2](/[C:3](=[N:4]/[H:12])[H:11])/[N:7]=[C:5](/[O:6][H:13])[H:10])([H:8])[H:9]"
C        1.76521323       0.47549005       0.23104896
C        0.73501842       0.25481114      -0.71151167
C        0.30307726      -1.10514061      -0.82492096
N       -0.91375500      -1.18263122      -0.31399795
C       -1.15195951       0.37904381       0.23037905
O       -2.38612796       0.77958392       0.57775746
N       -0.37060031       1.09524805      -0.53505685
H        1.91942703       1.49892453       0.55973958
H        2.71205351      -0.00011501      -0.01202061
H        0.24411350       0.08495512       1.37314405
H        0.96406722      -1.96207896      -0.87528237
H       -1.39379557      -2.05018934      -0.13949582
H       -2.42673183       1.73209851       0.44021710
13
Frame=10 idx=010418 GeodesicLength=0.8898162116411292 rxn_smarts="[C:1]([c:2]1[c:3]([H:11])[n:4]([H:12])[c:5]([O:6][H:13])[n:7]1)([H:8])([H:9])[H:10]>>[C:1](=[C:2](/[C:3](=[N:4]/[H:12])[H:11])/[N:7]=[C:5](/[O:6][H:13])[H:10])([H:8])[H:9]"
C        1.76588805       0.47416677       0.23806787
C        0.73159486       0.24779237      -0.70207649
C        0.29999207      -1.11208030      -0.82386283
N       -0.92116380      -1.20093389      -0.32104577
C       -1.15942672       0.38536872       0.24599312
O       -2.38890120       0.80544811       0.58612469
N       -0.37528001       1.08964432      -0.52534149
H        1.91904454       1.50112737       0.55786304
H        2.71740327       0.02492365      -0.03612525
H        0.25768960       0.07113896       1.38924873
H        0.97002992      -1.96323688      -0.86118190
H       -1.39272195      -2.07727351      -0.16827225
H       -2.42414863       1.75391433       0.42060851
13
Frame=11 idx=010418 GeodesicLength=0.9786907026107342 rxn_smarts="[C:1]([c:2]1[c:3]([H:11])[n:4]([H:12])[c:5]([O:6][H:13])[n:7]1)([H:8])([H:9])[H:10]>>[C:1](=[C:2](/[C:3](=[N:4]/[H:12])[H:11])/[N:7]=[C:5](/[O:6][H:13])[H:10])([H:8])[H:9]"
C        1.76664129       0.47308079       0.24469520
C        0.72802884       0.24047227      -0.69260190
C        0.29694311      -1.11933949      -0.82247747
N       -0.92854314      -1.21976910      -0.32824809
C       -1.16683428       0.39202225       0.26196333
O       -2.39099735       0.83212416       0.59513042
N       -0.38016943       1.08369078      -0.51589219
H        1.91807481       1.50354265       0.55576215
H        2.72145637       0.05029281      -0.05958058
H        0.27189133       0.05746482       1.40536803
H        0.97580280      -1.96457335      -0.84660133
H       -1.39137058      -2.10453151      -0.19852952
H       -2.42092376       1.77552291       0.40101194
13
Frame=12 idx=010418 GeodesicLength=1.067541452566679 rxn_smarts="[C:1]([c:2]1[c:3]([H:11])[n:4]([H:12])[c:5]([O:6][H:13])[n:7]1)([H:8])([H:9])[H:10]>>[C:1](=[C:2](/[C:3](=[N:4]/[H:12])[H:11])/[N:7]=[C:5](/[O:6][H:13])[H:10])([H:8])[H:9]"
C        1.76746268       0.47225248       0.25093980
C        0.72431199       0.23283979      -0.68305479
C        0.29393189      -1.12693944      -0.82070412
N       -0.93588583      -1.23917150      -0.33558363
C       -1.17416690       0.39903464       0.27833570
O       -2.39236595       0.85964652       0.60483930
N       -0.38528231       1.07737114      -0.50668628
H        1.91652270       1.50618921       0.55341745
H        2.72426065       0.07595925      -0.08249544
H        0.28675841       0.04395373       1.42153472
H        0.98137683      -1.96610563      -0.83141769
H       -1.38977788      -2.13187856      -0.23047071
H       -2.41714630       1.79684837       0.38134569
13
Frame=13 idx=010418 GeodesicLength=1.156362405526699 rxn_smarts="[C:1]([c:2]1[c:3]([H:11])[n:4]([H:12])[c:5]([O:6][H:13])[n:7]1)([H:8])([H:9])[H:10]>>[C:1](=[C:2](/[C:3](=[N:4]/[H:12])[H:11])/[N:7]=[C:5](/[O:6][H:13])[H:10])([H:8])[H:9]"
C        1.76830529       0.47170371       0.25681940
C        0.72043431       0.22488633      -0.67343674
C        0.29097346      -1.13490321      -0.81854841
N       -0.94320129      -1.25918576      -0.34316245
C       -1.18145461       0.40641733       0.29503644
O       -2.39303127       0.88804154       0.61510487
N       -0.39064579       1.07066381      -0.49777436
H        1.91433868       1.50909647       0.55082445
H        2.72581703       0.10188094      -0.10485822
H        0.30223708       0.03061108       1.43772419
H        0.98677174      -1.96785214      -0.81559330
H       -1.38784229      -2.15932447      -0.26399239
H       -2.41270234       1.81796437       0.36185652
13
Frame=14 idx=010418 GeodesicLength=1.24515844476213 rxn_smarts="[C:1]([c:2]1[c:3]([H:11])[n:4]([H:12])[c:5]([O:6][H:13])[n:7]1)([H:8])([H:9])[H:10]>>[C:1](=[C:2](/[C:3](=[N:4]/[H:12])[H:11])/[N:7]=[C:5](/[O:6][H:13])[H:10])([H:8])[H:9]"
C        1.76917337       0.47144589       0.26233253
C        0.71638354       0.21659843      -0.66369871
C        0.28806374      -1.14325355      -0.81592940
N       -0.95047971      -1.27984807      -0.35093685
C       -1.18866516       0.41420711       0.31216177
O       -2.39290464       0.91736887       0.62606306
N       -0.39627399       1.06355221      -0.48909945
H        1.91154405       1.51227475       0.54795594
H        2.72616110       0.12803579      -0.12679475
H        0.31840993       0.01745843       1.45398430
H        0.99196859      -1.96983589      -0.79899704
H       -1.38562203      -2.18674250      -0.29937944
H       -2.40775878       1.83873851       0.34233803
13
Frame=15 idx=010418 GeodesicLength=1.333930483821892 rxn_smarts="[C:1]([c:2]1[c:3]([H:11])[n:4]([H:12])[c:5]([O:6][H:13])[n:7]1)([H:8])([H:9])[H:10]>>[C:1](=[C:2](/[C:3](=[N:4]/[H:12])[H:11])/[N:7]=[C:5](/[O:6][H:13])[H:10])([H:8])[H:9]"
C        1.77004331       0.47149246       0.26748345
C        0.71214666       0.20796395      -0.65381904
C        0.28520751      -1.15201439      -0.81281446
N       -0.95772278      -1.30120113      -0.35896219
C       -1.19579828       0.42242857       0.32971948
O       -2.39194907       0.94768205       0.63769228
N       -0.40219000       1.05601401      -0.48065740
H        1.90811655       1.51573783       0.54479593
H        2.72529397       0.15439845      -0.14835856
H        0.33529131       0.00450269       1.47032175
H        0.99696281      -1.97207799      -0.78152879
H       -1.38306991      -2.21407349      -0.33670609
H       -2.40233209       1.85914700       0.32283363
13
Frame=16 idx=010418 GeodesicLength=1.4226737506874 rxn_smarts="[C:1]([c:2]1[c:3]([H:11])[n:4]([H:12])[c:5]([O:6][H:13])[n:7]1)([H:8])([H:9])[H:10]>>[C:1](=[C:2](/[C:3](=[N:4]/[H:12])[H:11])/[N:7]=[C:5](/[O:6][H:13])[H:10])([H:8])[H:9]"
C        1.77084566       0.47185777       0.27228971
C        0.70770497       0.19897490      -0.64380730
C        0.28241764      -1.16120741      -0.80923556
N       -0.96494716      -1.32329471      -0.36743618
C       -1.20290081       0.43109011       0.34761397
O       -2.39019311       0.97900609       0.64977937
N       -0.40843433       1.04802200      -0.47251127
H        1.90398365       1.51950209       0.54133934
H        2.72318657       0.18091517      -0.16951624
H        0.35280674      -0.00827149       1.48669618
H        1.00176223      -1.97459253      -0.76314991
H       -1.37996997      -2.24133436      -0.37575076
H       -2.39626211       1.87933235       0.30368867
