11
Frame=0 idx=004497 GeodesicLength=0.0 rxn_smarts="[C:1]([C@@:2]([C:3](=[O:4])[H:11])([C:5]#[N:6])[H:10])([H:7])([H:8])[H:9]>>[C:1]([C@@:2]1([H:10])[C:3]([H:11])=[C:5]1[N:6]=[O:4])([H:7])([H:8])[H:9]"
C       -1.02676067      -0.69756713       0.58820599
C        0.16981559       0.21767515       0.69769868
C        1.27956207       0.18849349      -0.28467165
O        0.42126023       0.24908270      -2.07228966
C        0.48127424       1.33059818      -0.30162074
N       -0.06467720       1.30679294      -1.54578271
H       -1.87476592      -0.25262596       1.10866052
H       -1.30832000      -0.86734669      -0.44990885
H       -0.80753502      -1.66106506       1.05159745
H        0.48347622       0.41612070       1.72149719
H        2.24667043      -0.23015832      -0.51338626
11
Frame=1 idx=004497 GeodesicLength=0.12279445620552794 rxn_smarts="[C:1]([C@@:2]([C:3](=[O:4])[H:11])([C:5]#[N:6])[H:10])([H:7])([H:8])[H:9]>>[C:1]([C@@:2]1([H:10])[C:3]([H:11])=[C:5]1[N:6]=[O:4])([H:7])([H:8])[H:9]"
C       -1.03091579      -0.69806944       0.59258465
C        0.16928668       0.21348824       0.69394859
C        1.27432038       0.17038229      -0.29549084
O        0.44101170       0.24186300      -2.08224884
C        0.46614776       1.32823507      -0.30257724
N       -0.06575158       1.32537321      -1.54855599
H       -1.87344629      -0.25127568       1.12046672
H       -1.32347495      -0.86452525      -0.44317877
H       -0.80802901      -1.66387629       1.04927824
H        0.49008034       0.41438125       1.71516367
H        2.26077075      -0.21597641      -0.49939019
11
Frame=2 idx=004497 GeodesicLength=0.24535245986252768 rxn_smarts="[C:1]([C@@:2]([C:3](=[O:4])[H:11])([C:5]#[N:6])[H:10])([H:7])([H:8])[H:9]>>[C:1]([C@@:2]1([H:10])[C:3]([H:11])=[C:5]1[N:6]=[O:4])([H:7])([H:8])[H:9]"
C       -1.03492121      -0.69862564       0.59697960
C        0.16890675       0.20920165       0.68987115
C        1.26915319       0.15187691      -0.30658914
O        0.46128296       0.23432427      -2.09231005
C        0.45092326       1.32578637      -0.30372837
N       -0.06680781       1.34471321      -1.55098779
H       -1.87182048      -0.24990220       1.13230277
H       -1.33856401      -0.86183560      -0.43626203
H       -0.80845954      -1.66668868       1.04699429
H        0.49685909       0.41265402       1.70841565
H        2.27344781      -0.20150429      -0.48468609
11
Frame=3 idx=004497 GeodesicLength=0.36772969187535126 rxn_smarts="[C:1]([C@@:2]([C:3](=[O:4])[H:11])([C:5]#[N:6])[H:10])([H:7])([H:8])[H:9]>>[C:1]([C@@:2]1([H:10])[C:3]([H:11])=[C:5]1[N:6]=[O:4])([H:7])([H:8])[H:9]"
C       -1.03873597      -0.69924324       0.60137762
C        0.16866074       0.20487092       0.68547217
C        1.26410165       0.13308685      -0.31789695
O        0.48212280       0.22641627      -2.10242099
C        0.43556629       1.32331087      -0.30505422
N       -0.06783537       1.36489341      -1.55303420
H       -1.86988093      -0.24855323       1.14413243
H       -1.35352135      -0.85930956      -0.42917202
H       -0.80874584      -1.66949718       1.04474379
H        0.50374776       0.41102202       1.70126795
H        2.28452023      -0.18699712      -0.46941559
11
Frame=4 idx=004497 GeodesicLength=0.4900141040918293 rxn_smarts="[C:1]([C@@:2]([C:3](=[O:4])[H:11])([C:5]#[N:6])[H:10])([H:7])([H:8])[H:9]>>[C:1]([C@@:2]1([H:10])[C:3]([H:11])=[C:5]1[N:6]=[O:4])([H:7])([H:8])[H:9]"
C       -1.04232835      -0.69992826       0.60576454
C        0.16852811       0.20055093       0.68075905
C        1.25920054       0.11411291      -0.32934481
O        0.50357083       0.21806320      -2.11251871
C        0.42003677       1.32086311      -0.30653807
N       -0.06882767       1.38600421      -1.55464740
H       -1.86762587      -0.24727562       1.15592635
H       -1.36829798      -0.85697054      -0.42192262
H       -0.80881679      -1.67229795       1.04251771
H        0.51067925       0.40956638       1.69373804
H        2.29388116      -0.17268837      -0.45373408
11
Frame=5 idx=004497 GeodesicLength=0.6122242611173255 rxn_smarts="[C:1]([C@@:2]([C:3](=[O:4])[H:11])([C:5]#[N:6])[H:10])([H:7])([H:8])[H:9]>>[C:1]([C@@:2]1([H:10])[C:3]([H:11])=[C:5]1[N:6]=[O:4])([H:7])([H:8])[H:9]"
C       -1.04567549      -0.70068251       0.61012996
C        0.16848063       0.19629029       0.67574168
C        1.25447938       0.09504371      -0.34085480
O        0.52567240       0.20920214      -2.12255145
C        0.40428429       1.31848454      -0.30816693
N       -0.06979121       1.40811546      -1.55577765
H       -1.86505922      -0.24610723       1.16766223
H       -1.38285640      -0.85483582      -0.41452511
H       -0.80861697      -1.67508025       1.04030983
H        0.51758208       0.40835683       1.68584767
H        2.30150051      -0.15878717      -0.43781543
11
Frame=6 idx=004497 GeodesicLength=0.7344578136691742 rxn_smarts="[C:1]([C@@:2]([C:3](=[O:4])[H:11])([C:5]#[N:6])[H:10])([H:7])([H:8])[H:9]>>[C:1]([C@@:2]1([H:10])[C:3]([H:11])=[C:5]1[N:6]=[O:4])([H:7])([H:8])[H:9]"
C       -1.04876330      -0.70151061       0.61446006
C        0.16849251       0.19213602       0.67042434
C        1.24995837       0.07594252      -0.35237600
O        0.54843560       0.19972166      -2.13244747
C        0.38827213       1.31620974      -0.30993943
N       -0.07071813       1.43133994      -1.55636556
H       -1.86219070      -0.24508565       1.17931914
H       -1.39717589      -0.85292233      -0.40699162
H       -0.80810038      -1.67784362       1.03810847
H        0.52439848       0.40746037       1.67760884
H        2.30739130      -0.14544804      -0.42180077
11
Frame=7 idx=004497 GeodesicLength=0.8567161818110717 rxn_smarts="[C:1]([C@@:2]([C:3](=[O:4])[H:11])([C:5]#[N:6])[H:10])([H:7])([H:8])[H:9]>>[C:1]([C@@:2]1([H:10])[C:3]([H:11])=[C:5]1[N:6]=[O:4])([H:7])([H:8])[H:9]"
C       -1.05158581      -0.70241482       0.61874439
C        0.16853675       0.18812567       0.66481074
C        1.24565452       0.05685503      -0.36385623
O        0.57186344       0.18952260      -2.14215102
C        0.37196296       1.31405771      -0.31185780
N       -0.07160571       1.45576998      -1.55635380
H       -1.85903254      -0.24423845       1.19088301
H       -1.41124683      -0.85123998      -0.39933166
H       -0.80723747      -1.68058436       1.03590384
H        0.53107508       0.40692913       1.66903281
H        2.31161563      -0.13278251      -0.40582430
11
Frame=8 idx=004497 GeodesicLength=0.9791012568241217 rxn_smarts="[C:1]([C@@:2]([C:3](=[O:4])[H:11])([C:5]#[N:6])[H:10])([H:7])([H:8])[H:9]>>[C:1]([C@@:2]1([H:10])[C:3]([H:11])=[C:5]1[N:6]=[O:4])([H:7])([H:8])[H:9]"
C       -1.05414467      -0.70339308       0.62297047
C        0.16858599       0.18428571       0.65889871
C        1.24157730       0.03780202      -0.37525587
O        0.59595193       0.17846795      -2.15161681
C        0.35532086       1.31202918      -0.31393481
N       -0.07246623       1.48152199      -1.55565558
H       -1.85559625      -0.24357880       1.20234018
H       -1.42507266      -0.84979670      -0.39155354
H       -0.80601670      -1.68329370       1.03368511
H        0.53756607       0.40679801       1.66012252
H        2.31429435      -0.12084258      -0.39000037
11
Frame=9 idx=004497 GeodesicLength=1.1021831057937277 rxn_smarts="[C:1]([C@@:2]([C:3](=[O:4])[H:11])([C:5]#[N:6])[H:10])([H:7])([H:8])[H:9]>>[C:1]([C@@:2]1([H:10])[C:3]([H:11])=[C:5]1[N:6]=[O:4])([H:7])([H:8])[H:9]"
C       -1.05647659      -0.70443749       0.62711568
C        0.16862711       0.18059179       0.65264847
C        1.23770352       0.01870839      -0.38660150
O        0.62062256       0.16622193      -2.16083731
C        0.33837579       1.31006822      -0.31624129
N       -0.07332925       1.50881841      -1.55404652
H       -1.85189814      -0.24307506       1.21368447
H       -1.43872360      -0.84857414      -0.38366451
H       -0.80449773      -1.68597857       1.03142836
H        0.54387132       0.40704438       1.65083496
H        2.31572500      -0.10938785      -0.37432080
11
Frame=10 idx=004497 GeodesicLength=1.225357203402452 rxn_smarts="[C:1]([C@@:2]([C:3](=[O:4])[H:11])([C:5]#[N:6])[H:10])([H:7])([H:8])[H:9]>>[C:1]([C@@:2]1([H:10])[C:3]([H:11])=[C:5]1[N:6]=[O:4])([H:7])([H:8])[H:9]"
C       -1.05855107      -0.70555873       0.63117502
C        0.16862797       0.17711099       0.64608415
C        1.23407568      -0.00032166      -0.39780232
O        0.64589774       0.15281676      -2.16973293
C        0.32103650       1.30822242      -0.31875291
N       -0.07413633       1.53768387      -1.55154656
H       -1.84794543      -0.24278594       1.22489474
H       -1.45214078      -0.84760852      -0.37567688
H       -0.80260140      -1.68862732       1.02913606
H        0.54991212       0.40776600       1.64120431
H        2.31582500      -0.09869788      -0.35898268
11
Frame=11 idx=004497 GeodesicLength=1.3485888437848053 rxn_smarts="[C:1]([C@@:2]([C:3](=[O:4])[H:11])([C:5]#[N:6])[H:10])([H:7])([H:8])[H:9]>>[C:1]([C@@:2]1([H:10])[C:3]([H:11])=[C:5]1[N:6]=[O:4])([H:7])([H:8])[H:9]"
C       -1.06037673      -0.70675716       0.63513513
C        0.16856913       0.17385362       0.63919235
C        1.23070142      -0.01929719      -0.40883459
O        0.67173488       0.13808506      -2.17828073
C        0.30327723       1.30647354      -0.32149964
N       -0.07486360       1.56824529      -1.54803371
H       -1.84375051      -0.24271391       1.23595747
H       -1.46533748      -0.84690899      -0.36759968
H       -0.80033194      -1.69123785       1.02680203
H        0.55565799       0.40898702       1.63121976
H        2.31471962      -0.08872942      -0.34405840
11
Frame=12 idx=004497 GeodesicLength=1.4717724658949272 rxn_smarts="[C:1]([C@@:2]([C:3](=[O:4])[H:11])([C:5]#[N:6])[H:10])([H:7])([H:8])[H:9]>>[C:1]([C@@:2]1([H:10])[C:3]([H:11])=[C:5]1[N:6]=[O:4])([H:7])([H:8])[H:9]"
C       -1.06196263      -0.70803657       0.63898220
C        0.16843535       0.17082982       0.63195402
C        1.22758194      -0.03823018      -0.41969052
O        0.69807442       0.12185954      -2.18645708
C        0.28508240       1.30480466      -0.32452201
N       -0.07548540       1.60063205      -1.54338431
H       -1.83932588      -0.24286124       1.24685935
H       -1.47832747      -0.84648769      -0.35944073
H       -0.79769242      -1.69381101       1.02441845
H        0.56109095       0.41072818       1.62086181
H        2.31252875      -0.07942756      -0.32958117
11
Frame=13 idx=004497 GeodesicLength=1.59487264294897 rxn_smarts="[C:1]([C@@:2]([C:3](=[O:4])[H:11])([C:5]#[N:6])[H:10])([H:7])([H:8])[H:9]>>[C:1]([C@@:2]1([H:10])[C:3]([H:11])=[C:5]1[N:6]=[O:4])([H:7])([H:8])[H:9]"
C       -1.06331806      -0.70939623       0.64270067
C        0.16820550       0.16804829       0.62435012
C        1.22472925      -0.05714766      -0.43034347
O        0.72487548       0.10393841      -2.19424027
C        0.26641704       1.30318205      -0.32786401
N       -0.07596775       1.63499787      -1.53743370
H       -1.83468326      -0.24322540       1.25758095
H       -1.49112105      -0.84636051      -0.35121082
H       -0.79469059      -1.69633814       1.02198398
H        0.56617679       0.41301044       1.61011086
H        2.30937667      -0.07070911      -0.31563432
11
Frame=14 idx=004497 GeodesicLength=1.7178622260413703 rxn_smarts="[C:1]([C@@:2]([C:3](=[O:4])[H:11])([C:5]#[N:6])[H:10])([H:7])([H:8])[H:9]>>[C:1]([C@@:2]1([H:10])[C:3]([H:11])=[C:5]1[N:6]=[O:4])([H:7])([H:8])[H:9]"
C       -1.06444645      -0.71084267       0.64627036
C        0.16786310       0.16551467       0.61634659
C        1.22215528      -0.07606773      -0.44078570
O        0.75206596       0.08408421      -2.20160535
C        0.24724897       1.30156343      -0.33160897
N       -0.07625604       1.67154214      -1.52996449
H       -1.82982882      -0.24380655       1.26809863
H       -1.50372585      -0.84655505      -0.34292217
H       -0.79132054      -1.69881695       1.01949570
H        0.57088426       0.41587743       1.59892880
H        2.30536012      -0.06249294      -0.30225340
11
Frame=15 idx=004497 GeodesicLength=1.8406630421903547 rxn_smarts="[C:1]([C@@:2]([C:3](=[O:4])[H:11])([C:5]#[N:6])[H:10])([H:7])([H:8])[H:9]>>[C:1]([C@@:2]1([H:10])[C:3]([H:11])=[C:5]1[N:6]=[O:4])([H:7])([H:8])[H:9]"
C       -1.06535367      -0.71238141       0.64967227
C        0.16738739       0.16323682       0.60790389
C        1.21986784      -0.09501761      -0.45101084
O        0.77957517       0.06204779      -2.20853672
C        0.22753497       1.29989689      -0.33585080
N       -0.07627200       1.71046511      -1.52072374
H       -1.82477249      -0.24460492       1.27838748
H       -1.51614887      -0.84710518      -0.33458360
H       -0.78757823      -1.70124052       1.01695712
H        0.57517933       0.41937305       1.58726765
H        2.30058054      -0.05467005      -0.28948271
11
Frame=16 idx=004497 GeodesicLength=1.9632032480274488 rxn_smarts="[C:1]([C@@:2]([C:3](=[O:4])[H:11])([C:5]#[N:6])[H:10])([H:7])([H:8])[H:9]>>[C:1]([C@@:2]1([H:10])[C:3]([H:11])=[C:5]1[N:6]=[O:4])([H:7])([H:8])[H:9]"
C       -1.06604359      -0.71402423       0.65288594
C        0.16675464       0.16122681       0.59897573
C        1.21787594      -0.11402714      -0.46101401
O        0.80730830       0.03754783      -2.21505313
C        0.20721690       1.29811453      -0.34071397
N       -0.07589345       1.75200680      -1.50938167
H       -1.81952942      -0.24561993       1.28840790
H       -1.52839075      -0.84807026      -0.32620816
H       -0.78344827      -1.70360344       1.01439048
H        0.57902019       0.42357228       1.57507238
H        2.29512951      -0.04712325      -0.27736148
