11
Frame=0 idx=009948 GeodesicLength=0.0 rxn_smarts="[C:1]([C:2](=[O:3])[C:4](=[O:5])[C:6](=[O:7])[H:11])([H:8])([H:9])[H:10]>>[C-:6]#[O+:7].[C:1]([C:2]([O-:3])=[C+:4][O:5][H:11])([H:8])([H:9])[H:10]"
C       -1.78660885       0.19721333      -0.38683490
C       -0.64065082      -0.76864327      -0.28862312
O       -0.67009480      -1.91548020      -0.66020636
C        0.64249067      -0.23152037       0.24122754
O        0.83441127      -0.24945668       1.46393702
C        2.57372426       0.54512660       0.14963872
O        3.27127537       0.89267279      -0.67937181
H       -2.08147372       0.51672368       0.61564750
H       -2.62592173      -0.28375772      -0.88494761
H       -1.48285320       1.08787052      -0.94103518
H        1.96570154       0.20925129       1.37056815
11
Frame=1 idx=009948 GeodesicLength=0.036136252206678446 rxn_smarts="[C:1]([C:2](=[O:3])[C:4](=[O:5])[C:6](=[O:7])[H:11])([H:8])([H:9])[H:10]>>[C-:6]#[O+:7].[C:1]([C:2]([O-:3])=[C+:4][O:5][H:11])([H:8])([H:9])[H:10]"
C       -1.79099422       0.19504862      -0.38664173
C       -0.63568105      -0.75986266      -0.29414262
O       -0.65342196      -1.90519516      -0.67087939
C        0.63966176      -0.21392133       0.24738386
O        0.82500534      -0.23678076       1.47160437
C        2.58130130       0.52753604       0.14949663
O        3.26762431       0.87966687      -0.68837279
H       -2.08623641       0.50978065       0.61719995
H       -2.62663854      -0.29190267      -0.88508659
H       -1.49638274       1.08959379      -0.93962860
H        1.97576221       0.20603662       1.37906691
11
Frame=2 idx=009948 GeodesicLength=0.07254176456387287 rxn_smarts="[C:1]([C:2](=[O:3])[C:4](=[O:5])[C:6](=[O:7])[H:11])([H:8])([H:9])[H:10]>>[C-:6]#[O+:7].[C:1]([C:2]([O-:3])=[C+:4][O:5][H:11])([H:8])([H:9])[H:10]"
C       -1.79629116       0.19227408      -0.38580084
C       -0.63004989      -0.74962558      -0.30046988
O       -0.63405786      -1.89268514      -0.68424883
C        0.63649998      -0.19364892       0.25336941
O        0.81545507      -0.22309164       1.47897873
C        2.58819806       0.51192846       0.14964051
O        3.26748635       0.85866223      -0.69754932
H       -2.09234432       0.50019973       0.61987007
H       -2.62737185      -0.30136737      -0.88526854
H       -1.51250445       1.09195424      -0.93622527
H        1.98498007       0.20539992       1.38770395
11
Frame=3 idx=009948 GeodesicLength=0.10866167769310164 rxn_smarts="[C:1]([C:2](=[O:3])[C:4](=[O:5])[C:6](=[O:7])[H:11])([H:8])([H:9])[H:10]>>[C-:6]#[O+:7].[C:1]([C:2]([O-:3])=[C+:4][O:5][H:11])([H:8])([H:9])[H:10]"
C       -1.79996345       0.19025025      -0.38579986
C       -0.62507501      -0.74097055      -0.30541481
O       -0.61792269      -1.88237493      -0.69386865
C        0.63379694      -0.17690468       0.25966609
O        0.80620644      -0.21088488       1.48667681
C        2.59387938       0.49552894       0.14910937
O        3.26230624       0.84692418      -0.70618854
H       -2.09620407       0.49422650       0.62097713
H       -2.62747898      -0.30923158      -0.88535491
H       -1.52492759       1.09312539      -0.93555004
H        1.99538279       0.20031136       1.39574741
11
Frame=4 idx=009948 GeodesicLength=0.144837892333158 rxn_smarts="[C:1]([C:2](=[O:3])[C:4](=[O:5])[C:6](=[O:7])[H:11])([H:8])([H:9])[H:10]>>[C-:6]#[O+:7].[C:1]([C:2]([O-:3])=[C+:4][O:5][H:11])([H:8])([H:9])[H:10]"
C       -1.80348875       0.18821097      -0.38580476
C       -0.62002377      -0.73217995      -0.31021235
O       -0.60166394      -1.87179552      -0.70334839
C        0.63110003      -0.16012787       0.26599262
O        0.79696390      -0.19860987       1.49435456
C        2.59884806       0.47964890       0.14841815
O        3.25694414       0.83495860      -0.71464505
H       -2.09989731       0.48837187       0.62202771
H       -2.62737165      -0.31718055      -0.88539548
H       -1.53726215       1.09413985      -0.93498307
H        2.00585144       0.19456356       1.40359606
11
Frame=5 idx=009948 GeodesicLength=0.18128243289707308 rxn_smarts="[C:1]([C:2](=[O:3])[C:4](=[O:5])[C:6](=[O:7])[H:11])([H:8])([H:9])[H:10]>>[C-:6]#[O+:7].[C:1]([C:2]([O-:3])=[C+:4][O:5][H:11])([H:8])([H:9])[H:10]"
C       -1.80765680       0.18570320      -0.38534474
C       -0.61441717      -0.72212672      -0.31556169
O       -0.58320945      -1.85926380      -0.71483976
C        0.62812940      -0.14117644       0.27227767
O        0.78750623      -0.18535139       1.50188807
C        2.60359702       0.46414251       0.14790707
O        3.25367596       0.81753438      -0.72331977
H       -2.10459181       0.48050304       0.62387219
H       -2.62713765      -0.32619303      -0.88552559
H       -1.55158990       1.09558599      -0.93292432
H        2.01569419       0.19064226       1.41157087
11
Frame=6 idx=009948 GeodesicLength=0.21825228145667552 rxn_smarts="[C:1]([C:2](=[O:3])[C:4](=[O:5])[C:6](=[O:7])[H:11])([H:8])([H:9])[H:10]>>[C-:6]#[O+:7].[C:1]([C:2]([O-:3])=[C+:4][O:5][H:11])([H:8])([H:9])[H:10]"
C       -1.81261389       0.18260533      -0.38433821
C       -0.60808710      -0.71039445      -0.32160705
O       -0.56192393      -1.84414125      -0.72883281
C        0.62480334      -0.11938501       0.27856927
O        0.77768488      -0.17067281       1.50931567
C        2.60858932       0.44755513       0.14758357
O        3.25245050       0.79409901      -0.73234906
H       -2.11051591       0.47006927       0.62666907
H       -2.62668502      -0.33657148      -0.88582129
H       -1.56845624       1.09755905      -0.92901269
H        2.02475405       0.18927721       1.41982352
11
Frame=7 idx=009948 GeodesicLength=0.25551370630982845 rxn_smarts="[C:1]([C:2](=[O:3])[C:4](=[O:5])[C:6](=[O:7])[H:11])([H:8])([H:9])[H:10]>>[C-:6]#[O+:7].[C:1]([C:2]([O-:3])=[C+:4][O:5][H:11])([H:8])([H:9])[H:10]"
C       -1.81757665       0.17929455      -0.38316965
C       -0.60140901      -0.69795175      -0.32779319
O       -0.53960489      -1.82777380      -0.74360559
C        0.62139806      -0.09675633       0.28497058
O        0.76770670      -0.15564462       1.51676732
C        2.61293838       0.43129458       0.14734537
O        3.25131162       0.76812973      -0.74167320
H       -2.11654681       0.45876437       0.62972390
H       -2.62581504      -0.34738664      -0.88623478
H       -1.58595102       1.09955986      -0.92447186
H        2.03354864       0.18847006       1.42814110
11
Frame=8 idx=009948 GeodesicLength=0.29280347537275775 rxn_smarts="[C:1]([C:2](=[O:3])[C:4](=[O:5])[C:6](=[O:7])[H:11])([H:8])([H:9])[H:10]>>[C-:6]#[O+:7].[C:1]([C:2]([O-:3])=[C+:4][O:5][H:11])([H:8])([H:9])[H:10]"
C       -1.82192753       0.17613603      -0.38220778
C       -0.59478720      -0.68576666      -0.33356991
O       -0.51797767      -1.81162438      -0.75740641
C        0.61815461      -0.07507224       0.29150523
O        0.75775873      -0.14104308       1.52431495
C        2.61631608       0.41557156       0.14694484
O        3.24856436       0.74381820      -0.75097824
H       -2.12178150       0.44830941       0.63237254
H       -2.62449145      -0.35783486      -0.88664495
H       -1.60237822       1.10113556      -0.92057801
H        2.04254978       0.18637045       1.43624774
11
Frame=9 idx=009948 GeodesicLength=0.3303929358274617 rxn_smarts="[C:1]([C:2](=[O:3])[C:4](=[O:5])[C:6](=[O:7])[H:11])([H:8])([H:9])[H:10]>>[C-:6]#[O+:7].[C:1]([C:2]([O-:3])=[C+:4][O:5][H:11])([H:8])([H:9])[H:10]"
C       -1.82616258       0.17282355      -0.38114015
C       -0.58787887      -0.67301897      -0.33942355
O       -0.49561412      -1.79442990      -0.77173324
C        0.61489166      -0.05288662       0.29814627
O        0.74766140      -0.12625305       1.53188930
C        2.61906489       0.40012590       0.14660590
O        3.24552331       0.71763399      -0.76053332
H       -2.12693214       0.43723308       0.63518250
H       -2.62272308      -0.36857186      -0.88715000
H       -1.61914671       1.10266275      -0.91623787
H        2.05131625       0.18468112       1.44439417
11
Frame=10 idx=009948 GeodesicLength=0.3680952593804812 rxn_smarts="[C:1]([C:2](=[O:3])[C:4](=[O:5])[C:6](=[O:7])[H:11])([H:8])([H:9])[H:10]>>[C-:6]#[O+:7].[C:1]([C:2]([O-:3])=[C+:4][O:5][H:11])([H:8])([H:9])[H:10]"
C       -1.82991613       0.16958846      -0.38019284
C       -0.58095388      -0.66036021      -0.34501920
O       -0.47363490      -1.77719553      -0.78548223
C        0.61176173      -0.03134924       0.30489393
O        0.73753829      -0.11180069       1.53952721
C        2.62096722       0.38535180       0.14618982
O        3.24128239       0.69209843      -0.77015948
H       -2.13146634       0.42662461       0.63775182
H       -2.62052537      -0.37908258      -0.88767103
H       -1.63518656       1.10388089      -0.91224732
H        2.06013353       0.18224408       1.45240930
11
Frame=11 idx=009948 GeodesicLength=0.4057890484297454 rxn_smarts="[C:1]([C:2](=[O:3])[C:4](=[O:5])[C:6](=[O:7])[H:11])([H:8])([H:9])[H:10]>>[C-:6]#[O+:7].[C:1]([C:2]([O-:3])=[C+:4][O:5][H:11])([H:8])([H:9])[H:10]"
C       -1.83303849       0.16655715      -0.37947243
C       -0.57416993      -0.64816950      -0.35019838
O       -0.45264364      -1.76053144      -0.79809835
C        0.60884056      -0.01106998       0.31173113
O        0.72746573      -0.09800850       1.54723366
C        2.62198394       0.37147990       0.14562097
O        3.23554649       0.66851784      -0.77975280
H       -2.13516673       0.41705564       0.63989457
H       -2.61796487      -0.38909317      -0.88815159
H       -1.64996297       1.10469066      -0.90901246
H        2.06910991       0.17857140       1.46020569
11
Frame=12 idx=009948 GeodesicLength=0.44328933720015995 rxn_smarts="[C:1]([C:2](=[O:3])[C:4](=[O:5])[C:6](=[O:7])[H:11])([H:8])([H:9])[H:10]>>[C-:6]#[O+:7].[C:1]([C:2]([O-:3])=[C+:4][O:5][H:11])([H:8])([H:9])[H:10]"
C       -1.83535037       0.16391392      -0.37914125
C       -0.56777255      -0.63700461      -0.35469471
O       -0.43351231      -1.74537361      -0.80869663
C        0.60622386       0.00714132       0.31860975
O        0.71755763      -0.08519058       1.55500129
C        2.62217974       0.35827299       0.14470249
O        3.22791945       0.64927191      -0.78902684
H       -2.13776582       0.40942813       0.64131929
H       -2.61518189      -0.39825157      -0.88847304
H       -1.66273651       1.10492772      -0.90719813
H        2.07843877       0.17286438       1.46759777
11
Frame=13 idx=009948 GeodesicLength=0.4808322887818838 rxn_smarts="[C:1]([C:2](=[O:3])[C:4](=[O:5])[C:6](=[O:7])[H:11])([H:8])([H:9])[H:10]>>[C-:6]#[O+:7].[C:1]([C:2]([O-:3])=[C+:4][O:5][H:11])([H:8])([H:9])[H:10]"
C       -1.83726558       0.16137694      -0.37891376
C       -0.56142263      -0.62607474      -0.35896153
O       -0.41489307      -1.73045677      -0.81871838
C        0.60374179       0.02458702       0.32555745
O        0.70764074      -0.07285993       1.56279840
C        2.62171672       0.34605667       0.14373653
O        3.21948092       0.63064709      -0.79836793
H       -2.13989127       0.40230412       0.64253895
H       -2.61211486      -0.40711289      -0.88879994
H       -1.67476086       1.10495107      -0.90571292
H        2.08776810       0.16658142       1.47484314
11
Frame=14 idx=009948 GeodesicLength=0.5182249126032944 rxn_smarts="[C:1]([C:2](=[O:3])[C:4](=[O:5])[C:6](=[O:7])[H:11])([H:8])([H:9])[H:10]>>[C-:6]#[O+:7].[C:1]([C:2]([O-:3])=[C+:4][O:5][H:11])([H:8])([H:9])[H:10]"
C       -1.83857265       0.15915531      -0.37898262
C       -0.55539870      -0.61601821      -0.36267852
O       -0.39777415      -1.71685193      -0.82713312
C        0.60149744       0.04035814       0.33253098
O        0.69785308      -0.06135950       1.57063465
C        2.62064962       0.33445459       0.14247762
O        3.20973233       0.61545115      -0.80743985
H       -2.14122295       0.39673774       0.64321042
H       -2.60891685      -0.41528475      -0.88899853
H       -1.68518632       1.10455997      -0.90534408
H        2.09733915       0.15879749       1.48172305
11
Frame=15 idx=009948 GeodesicLength=0.5556401327076392 rxn_smarts="[C:1]([C:2](=[O:3])[C:4](=[O:5])[C:6](=[O:7])[H:11])([H:8])([H:9])[H:10]>>[C-:6]#[O+:7].[C:1]([C:2]([O-:3])=[C+:4][O:5][H:11])([H:8])([H:9])[H:10]"
C       -1.83953674       0.15705731      -0.37915718
C       -0.54946178      -0.60627630      -0.36615718
O       -0.38122296      -1.70364793      -0.83494830
C        0.59937619       0.05534004       0.33956207
O        0.68806473      -0.05036235       1.57850065
C        2.61909043       0.32361423       0.14113915
O        3.19930469       0.60116356      -0.81651022
H       -2.14215553       0.39174990       0.64367783
H       -2.60552637      -0.42314698      -0.88917950
H       -1.69486360       1.10398889      -0.90535219
H        2.10693094       0.15051963       1.48842487
11
Frame=16 idx=009948 GeodesicLength=0.5932123898630424 rxn_smarts="[C:1]([C:2](=[O:3])[C:4](=[O:5])[C:6](=[O:7])[H:11])([H:8])([H:9])[H:10]>>[C-:6]#[O+:7].[C:1]([C:2]([O-:3])=[C+:4][O:5][H:11])([H:8])([H:9])[H:10]"
C       -1.84031221       0.15495507      -0.37932149
C       -0.54344294      -0.59645822      -0.36958729
O       -0.36459985      -1.69019138      -0.84282438
C        0.59730090       0.07012099       0.34670148
O        0.67817400      -0.03964040       1.58641669
C        2.61708738       0.31377339       0.13989066
O        3.18849408       0.58602209      -0.82582029
H       -2.14293517       0.38668394       0.64415298
H       -2.60186317      -0.43095067      -0.88944491
H       -1.70433674       1.10338279      -0.90525090
H        2.11643371       0.14230239       1.49508746
