12
Frame=0 idx=005360 GeodesicLength=0.0 rxn_smarts="[O:1]([C@@:2]1([H:8])[C:3]([H:9])([H:10])[C@:4]1([C:5](=[O:6])[H:12])[H:11])[H:7]>>[O:1]([C:2][C@@:4]([C:3]([H:8])([H:9])[H:10])([C:5](=[O:6])[H:12])[H:11])[H:7]"
O       -1.81138399       0.56797737       0.49167630
C       -1.21693905      -0.54694478      -0.00062377
C        0.11786845      -0.05747319      -1.22319491
C        0.29746899      -0.65211870       0.14092538
C        1.02462023       0.19346082       1.12527885
O        1.87796635      -0.21170200       1.86289749
H       -1.21919355       1.16706207       0.95745003
H       -1.16353696      -0.44747425      -1.28834686
H        0.48295432      -0.63331204      -2.06604005
H        0.20056087       1.02076725      -1.30741098
H        0.66188196      -1.67364340       0.16168367
H        0.74773234       1.27340082       1.14570490
12
Frame=1 idx=005360 GeodesicLength=0.07111952119501162 rxn_smarts="[O:1]([C@@:2]1([H:8])[C:3]([H:9])([H:10])[C@:4]1([C:5](=[O:6])[H:12])[H:11])[H:7]>>[O:1]([C:2][C@@:4]([C:3]([H:8])([H:9])[H:10])([C:5](=[O:6])[H:12])[H:11])[H:7]"
O       -1.82944424       0.55541711       0.49835598
C       -1.21578411      -0.54930734       0.01429193
C        0.11354523      -0.05325448      -1.21377255
C        0.29562271      -0.65387313       0.14814176
C        1.02764757       0.18216317       1.13625862
O        1.93113981      -0.21651768       1.81594864
H       -1.24181169       1.21459410       0.88093489
H       -1.16927031      -0.46045112      -1.28965389
H        0.49861799      -0.62076961      -2.05330875
H        0.20178122       1.02492886      -1.29393936
H        0.65077194      -1.67934075       0.16339828
H        0.73718388       1.25641087       1.19334445
12
Frame=2 idx=005360 GeodesicLength=0.1416279951428611 rxn_smarts="[O:1]([C@@:2]1([H:8])[C:3]([H:9])([H:10])[C@:4]1([C:5](=[O:6])[H:12])[H:11])[H:7]>>[O:1]([C:2][C@@:4]([C:3]([H:8])([H:9])[H:10])([C:5](=[O:6])[H:12])[H:11])[H:7]"
O       -1.84367601       0.54645540       0.50616060
C       -1.21447981      -0.54975313       0.02964679
C        0.10948651      -0.04948536      -1.20482141
C        0.29398944      -0.65546415       0.15515885
C        1.03260893       0.17115287       1.14570596
O        1.98174785      -0.21773936       1.76691743
H       -1.26600197       1.25619871       0.80397778
H       -1.17519114      -0.47203840      -1.29074178
H        0.51326608      -0.60940728      -2.04062277
H        0.20490700       1.02844085      -1.28141366
H        0.63916494      -1.68495247       0.16577503
H        0.72417818       1.23659233       1.24425717
12
Frame=3 idx=005360 GeodesicLength=0.21167386401477817 rxn_smarts="[O:1]([C@@:2]1([H:8])[C:3]([H:9])([H:10])[C@:4]1([C:5](=[O:6])[H:12])[H:11])[H:7]>>[O:1]([C:2][C@@:4]([C:3]([H:8])([H:9])[H:10])([C:5](=[O:6])[H:12])[H:11])[H:7]"
O       -1.85464575       0.54115472       0.51429726
C       -1.21301103      -0.54835933       0.04541103
C        0.10564014      -0.04607267      -1.19637625
C        0.29255496      -0.65680345       0.16194983
C        1.03936976       0.16056907       1.15357623
O        2.02954223      -0.21552923       1.71645654
H       -1.29176960       1.29212935       0.72763559
H       -1.18125487      -0.48270546      -1.29167489
H        0.52704944      -0.59909512      -2.02804345
H        0.20957526       1.03140255      -1.26986446
H        0.62716262      -1.69034638       0.16878210
H        0.70978684       1.21365595       1.29785045
12
Frame=4 idx=005360 GeodesicLength=0.2814338181776692 rxn_smarts="[O:1]([C@@:2]1([H:8])[C:3]([H:9])([H:10])[C@:4]1([C:5](=[O:6])[H:12])[H:11])[H:7]>>[O:1]([C:2][C@@:4]([C:3]([H:8])([H:9])[H:10])([C:5](=[O:6])[H:12])[H:11])[H:7]"
O       -1.86294613       0.53927947       0.52242460
C       -1.21139517      -0.54526571       0.06159996
C        0.10193052      -0.04289024      -1.18836645
C        0.29127337      -0.65782773       0.16856335
C        1.04761643       0.15043867       1.16009287
O        2.07451392      -0.21013935       1.66489241
H       -1.31906452       1.32291717       0.65186364
H       -1.18742612      -0.49281828      -1.29244635
H        0.54016517      -0.58957372      -2.01552512
H        0.21538671       1.03395345      -1.25915378
H        0.61486844      -1.69540660       0.17237455
H        0.69507739       1.18733287       1.35368032
12
Frame=5 idx=005360 GeodesicLength=0.3508516646968787 rxn_smarts="[O:1]([C@@:2]1([H:8])[C:3]([H:9])([H:10])[C@:4]1([C:5](=[O:6])[H:12])[H:11])[H:7]>>[O:1]([C:2][C@@:4]([C:3]([H:8])([H:9])[H:10])([C:5](=[O:6])[H:12])[H:11])[H:7]"
O       -1.86886824       0.54043990       0.53036410
C       -1.20946833      -0.54063610       0.07823874
C        0.09830223      -0.03980193      -1.18079693
C        0.29025902      -0.65846539       0.17494312
C        1.05719972       0.14083207       1.16530621
O        2.11619290      -0.20205422       1.61341938
H       -1.34816767       1.34900238       0.57688164
H       -1.19368448      -0.50251742      -1.29301887
H        0.55251024      -0.58064144      -2.00318006
H        0.22195256       1.03622725      -1.24925796
H        0.60247284      -1.70001455       0.17643679
H        0.68129921       1.15762945       1.41066384
12
Frame=6 idx=005360 GeodesicLength=0.4200468819385408 rxn_smarts="[O:1]([C@@:2]1([H:8])[C:3]([H:9])([H:10])[C@:4]1([C:5](=[O:6])[H:12])[H:11])[H:7]>>[O:1]([C:2][C@@:4]([C:3]([H:8])([H:9])[H:10])([C:5](=[O:6])[H:12])[H:11])[H:7]"
O       -1.87287102       0.54448682       0.53802572
C       -1.20734485      -0.53453014       0.09534719
C        0.09472539      -0.03669181      -1.17350459
C        0.28938720      -0.65868337       0.18123266
C        1.06774212       0.13163611       1.16966759
O        2.15495214      -0.19153099       1.56179922
H       -1.37919676       1.37066109       0.50196956
H       -1.19997832      -0.51204161      -1.29336637
H        0.56436344      -0.57202716      -1.99084226
H        0.22901777       1.03837479      -1.23990497
H        0.58993791      -1.70412549       0.18096034
H        0.66926498       1.12447176       1.46861590
12
Frame=7 idx=005360 GeodesicLength=0.488949015025102 rxn_smarts="[O:1]([C@@:2]1([H:8])[C:3]([H:9])([H:10])[C@:4]1([C:5](=[O:6])[H:12])[H:11])[H:7]>>[O:1]([C:2][C@@:4]([C:3]([H:8])([H:9])[H:10])([C:5](=[O:6])[H:12])[H:11])[H:7]"
O       -1.87508289       0.55123231       0.54542893
C       -1.20495067      -0.52700360       0.11296836
C        0.09118225      -0.03343477      -1.16643123
C        0.28871103      -0.65843811       0.18744183
C        1.07913898       0.12281477       1.17333310
O        2.19069207      -0.17908542       1.51074166
H       -1.41260719       1.38801321       0.42679018
H       -1.20628682      -0.52144695      -1.29342711
H        0.57571350      -0.56353433      -1.97852967
H        0.23634244       1.04054554      -1.23098105
H        0.57731098      -1.70769861       0.18586288
H        0.65983632       1.08803596       1.52680212
12
Frame=8 idx=005360 GeodesicLength=0.5576466999575396 rxn_smarts="[O:1]([C@@:2]1([H:8])[C:3]([H:9])([H:10])[C@:4]1([C:5](=[O:6])[H:12])[H:11])[H:7]>>[O:1]([C:2][C@@:4]([C:3]([H:8])([H:9])[H:10])([C:5](=[O:6])[H:12])[H:11])[H:7]"
O       -1.87556548       0.56085881       0.55246610
C       -1.20232635      -0.51794119       0.13116408
C        0.08767532      -0.02996562      -1.15948209
C        0.28815331      -0.65767901       0.19367463
C        1.09129115       0.11429504       1.17648745
O        2.22381588      -0.16475490       1.45987215
H       -1.44872392       1.40103038       0.35060863
H       -1.21256001      -0.53084901      -1.29312862
H        0.58668844      -0.55505941      -1.96613191
H        0.24385629       1.04281678      -1.22234149
H        0.56445419      -1.71069706       0.19120773
H        0.65324116       1.04794518       1.58560334
12
Frame=9 idx=005360 GeodesicLength=0.6259536845120314 rxn_smarts="[O:1]([C@@:2]1([H:8])[C:3]([H:9])([H:10])[C@:4]1([C:5](=[O:6])[H:12])[H:11])[H:7]>>[O:1]([C:2][C@@:4]([C:3]([H:8])([H:9])[H:10])([C:5](=[O:6])[H:12])[H:11])[H:7]"
O       -1.87403427       0.57337879       0.55919976
C       -1.19926816      -0.50727472       0.14999732
C        0.08421136      -0.02613843      -1.15264039
C        0.28785139      -0.65633131       0.19989015
C        1.10425721       0.10608405       1.17911612
O        2.25416091      -0.14926269       1.41029532
H       -1.48836978       1.40940936       0.27316882
H       -1.21876508      -0.54013424      -1.29237177
H        0.59710490      -0.54646540      -1.95373372
H        0.25135878       1.04533379      -1.21396576
H        0.55137813      -1.71304232       0.19694398
H        0.65011459       1.00444312       1.64410017
12
Frame=10 idx=005360 GeodesicLength=0.6938159727647901 rxn_smarts="[O:1]([C@@:2]1([H:8])[C:3]([H:9])([H:10])[C@:4]1([C:5](=[O:6])[H:12])[H:11])[H:7]>>[O:1]([C:2][C@@:4]([C:3]([H:8])([H:9])[H:10])([C:5](=[O:6])[H:12])[H:11])[H:7]"
O       -1.87061832       0.58926133       0.56515988
C       -1.19593538      -0.49480986       0.16950403
C        0.08079475      -0.02188260      -1.14579738
C        0.28762605      -0.65434089       0.20622224
C        1.11784635       0.09808211       1.18149344
O        2.28201631      -0.13273517       1.36159312
H       -1.53150615       1.41253615       0.19436921
H       -1.22479483      -0.54959137      -1.29111301
H        0.60725382      -0.53754356      -1.94118668
H        0.25869692       1.04822127      -1.20568232
H        0.53787781      -1.71469112       0.20309196
H        0.65074267       0.95749372       1.70234550
12
Frame=11 idx=005360 GeodesicLength=0.7611968374145985 rxn_smarts="[O:1]([C@@:2]1([H:8])[C:3]([H:9])([H:10])[C@:4]1([C:5](=[O:6])[H:12])[H:11])[H:7]>>[O:1]([C:2][C@@:4]([C:3]([H:8])([H:9])[H:10])([C:5](=[O:6])[H:12])[H:11])[H:7]"
O       -1.86511799       0.60892701       0.56996641
C       -1.19231595      -0.48032967       0.18971199
C        0.07745065      -0.01710784      -1.13891503
C        0.28744189      -0.65165679       0.21270595
C        1.13200468       0.09020799       1.18371949
O        2.30751766      -0.11538728       1.31392333
H       -1.57844387       1.40977433       0.11431398
H       -1.23057711      -0.55926451      -1.28928352
H        0.61718970      -0.52818698      -1.92844450
H        0.26580134       1.05159019      -1.19743923
H        0.52377714      -1.71560418       0.20969459
H        0.65527184       0.90703774       1.76004654
12
Frame=12 idx=005360 GeodesicLength=0.8281457185487756 rxn_smarts="[O:1]([C@@:2]1([H:8])[C:3]([H:9])([H:10])[C@:4]1([C:5](=[O:6])[H:12])[H:11])[H:7]>>[O:1]([C:2][C@@:4]([C:3]([H:8])([H:9])[H:10])([C:5](=[O:6])[H:12])[H:11])[H:7]"
O       -1.85712895       0.63290431       0.57315106
C       -1.18833879      -0.46355139       0.21059185
C        0.07426283      -0.01175289      -1.13202564
C        0.28729675      -0.64821577       0.21932579
C        1.14671272       0.08243617       1.18582604
O        2.33081148      -0.09726727       1.26744536
H       -1.62968936       1.40047803       0.03348204
H       -1.23602573      -0.56912086      -1.28686635
H        0.62691984      -0.51848753      -1.91552437
H        0.27273291       1.05551974      -1.18929872
H        0.50882724      -1.71574921       0.21686403
H        0.66361905       0.85280667       1.81702891
12
Frame=13 idx=005360 GeodesicLength=0.8944841726297477 rxn_smarts="[O:1]([C@@:2]1([H:8])[C:3]([H:9])([H:10])[C@:4]1([C:5](=[O:6])[H:12])[H:11])[H:7]>>[O:1]([C:2][C@@:4]([C:3]([H:8])([H:9])[H:10])([C:5](=[O:6])[H:12])[H:11])[H:7]"
O       -1.84676049       0.66144398       0.57361947
C       -1.18399929      -0.44427837       0.23199656
C        0.07120668      -0.00585528      -1.12526604
C        0.28712523      -0.64389534       0.22603176
C        1.16178977       0.07499378       1.18775047
O        2.35186297      -0.07824197       1.22241206
H       -1.68428351       1.38428161      -0.04637558
H       -1.24108052      -0.57938174      -1.28392899
H        0.63644973      -0.50858839      -1.90246596
H        0.27937357       1.05997717      -1.18157621
H        0.49288869      -1.71496910       0.22474227
H        0.67542716       0.79451365       1.87306020
12
Frame=14 idx=005360 GeodesicLength=0.9606198798367038 rxn_smarts="[O:1]([C@@:2]1([H:8])[C:3]([H:9])([H:10])[C@:4]1([C:5](=[O:6])[H:12])[H:11])[H:7]>>[O:1]([C:2][C@@:4]([C:3]([H:8])([H:9])[H:10])([C:5](=[O:6])[H:12])[H:11])[H:7]"
O       -1.83393809       0.69485906       0.57069930
C       -1.17938787      -0.42229292       0.25393740
C        0.06831220       0.00069594      -1.11853198
C        0.28675335      -0.63872206       0.23289647
C        1.17696717       0.06751874       1.18981015
O        2.37062256      -0.05860785       1.17878532
H       -1.74217634       1.36028525      -0.12452576
H       -1.24562405      -0.59007989      -1.28037973
H        0.64607207      -0.49817272      -1.88910443
H        0.28580826       1.06506623      -1.17408795
H        0.47569862      -1.71325448       0.23324049
H        0.69089212       0.73270470       1.92726070
12
Frame=15 idx=005360 GeodesicLength=1.026504311120797 rxn_smarts="[O:1]([C@@:2]1([H:8])[C:3]([H:9])([H:10])[C@:4]1([C:5](=[O:6])[H:12])[H:11])[H:7]>>[O:1]([C:2][C@@:4]([C:3]([H:8])([H:9])[H:10])([C:5](=[O:6])[H:12])[H:11])[H:7]"
O       -1.81928148       0.73255651       0.56338101
C       -1.17452681      -0.39771030       0.27610374
C        0.06558854       0.00769957      -1.11214567
C        0.28613653      -0.63267185       0.23976323
C        1.19189863       0.06038204       1.19190393
O        2.38691515      -0.03793607       1.13700465
H       -1.80138228       1.32922929      -0.19804199
H       -1.24969873      -0.60133437      -1.27648200
H        0.65577274      -0.48770898      -1.87568602
H        0.29217225       1.07060972      -1.16743173
H        0.45725868      -1.71057583       0.24246507
H        0.70914679       0.66746028       1.97916577
12
Frame=16 idx=005360 GeodesicLength=1.0921467576145192 rxn_smarts="[O:1]([C@@:2]1([H:8])[C:3]([H:9])([H:10])[C@:4]1([C:5](=[O:6])[H:12])[H:11])[H:7]>>[O:1]([C:2][C@@:4]([C:3]([H:8])([H:9])[H:10])([C:5](=[O:6])[H:12])[H:11])[H:7]"
O       -1.80303797       0.77358245       0.55107615
C       -1.16929174      -0.37066900       0.29805513
C        0.06301435       0.01494532      -1.10629961
C        0.28527018      -0.62567397       0.24647622
C        1.20624990       0.05390408       1.19398048
O        2.40055095      -0.01586939       1.09752803
H       -1.86052719       1.29206621      -0.26478050
H       -1.25339324      -0.61294153      -1.27251214
H        0.66537190      -0.47766727      -1.86222741
H        0.29868438       1.07623408      -1.16201534
H        0.43761055      -1.70670198       0.25250627
H        0.72949793       0.59879101       2.02821272
