14
Frame=0 idx=003041 GeodesicLength=0.0 rxn_smarts="[O:1]([C:2]([C:3]1([O:4][H:10])[C:5]([H:11])([H:12])[C:6]1([H:13])[H:14])([H:8])[H:9])[H:7]>>[C:3]1(=[O:4])[C:5]([H:11])([H:12])[C:6]1([H:13])[H:14].[H:7][H:10].[O:1]=[C:2]([H:8])[H:9]"
O        2.36358483      -0.26856238      -0.01739817
C        1.35035319      -0.10879800      -0.73666274
C       -0.31764326       0.17836583       0.43756408
O        0.09060006       0.64712960       1.52233422
C       -1.35959263      -0.81214147       0.11444718
C       -1.34594014       0.61191198      -0.52235018
H        2.15771957       0.16968259       1.30971891
H        0.86084416      -0.99995195      -1.14032273
H        1.23428200       0.83221039      -1.28547352
H        1.45297441       0.40806120       1.74894003
H       -2.10033353      -1.00992151       0.88043365
H       -1.16998334      -1.64026248      -0.55567812
H       -1.13810966       0.66358641      -1.58410898
H       -2.07875561       1.32868983      -0.17144364
14
Frame=1 idx=003041 GeodesicLength=0.0876306316794558 rxn_smarts="[O:1]([C:2]([C:3]1([O:4][H:10])[C:5]([H:11])([H:12])[C:6]1([H:13])[H:14])([H:8])[H:9])[H:7]>>[C:3]1(=[O:4])[C:5]([H:11])([H:12])[C:6]1([H:13])[H:14].[H:7][H:10].[O:1]=[C:2]([H:8])[H:9]"
O        2.35665852      -0.30552626      -0.00776164
C        1.36122220      -0.09534169      -0.74240588
C       -0.31609260       0.19559293       0.42278843
O        0.08868064       0.68968391       1.50102706
C       -1.35493255      -0.80997168       0.13325027
C       -1.36329547       0.60056656      -0.52891242
H        2.15311772       0.12591394       1.32982345
H        0.85670812      -0.94504395      -1.21107096
H        1.29589946       0.85903572      -1.27706853
H        1.43396310       0.38623940       1.76410893
H       -2.08539824      -1.00095949       0.91062759
H       -1.15842481      -1.65133408      -0.51815321
H       -1.16752532       0.63621377      -1.59355599
H       -2.10058079       1.31493092      -0.18269710
14
Frame=2 idx=003041 GeodesicLength=0.17500976700313225 rxn_smarts="[O:1]([C:2]([C:3]1([O:4][H:10])[C:5]([H:11])([H:12])[C:6]1([H:13])[H:14])([H:8])[H:9])[H:7]>>[C:3]1(=[O:4])[C:5]([H:11])([H:12])[C:6]1([H:13])[H:14].[H:7][H:10].[O:1]=[C:2]([H:8])[H:9]"
O        2.34633360      -0.34589054       0.00113184
C        1.37212360      -0.08289946      -0.74854051
C       -0.31483560       0.21291826       0.40743574
O        0.08773036       0.73099562       1.47867159
C       -1.34935498      -0.80770733       0.15171502
C       -1.38105170       0.58893129      -0.53466355
H        2.14561162       0.08044738       1.34881911
H        0.85337804      -0.88557478      -1.27992021
H        1.36135739       0.88335694      -1.26629203
H        1.41393011       0.37002399       1.77670858
H       -2.06896043      -0.99237521       0.94054939
H       -1.14539852      -1.66114935      -0.48147133
H       -1.19796233       0.60863856      -1.60190999
H       -2.12290117       1.30028463      -0.19223363
14
Frame=3 idx=003041 GeodesicLength=0.26220341518387796 rxn_smarts="[O:1]([C:2]([C:3]1([O:4][H:10])[C:5]([H:11])([H:12])[C:6]1([H:13])[H:14])([H:8])[H:9])[H:7]>>[C:3]1(=[O:4])[C:5]([H:11])([H:12])[C:6]1([H:13])[H:14].[H:7][H:10].[O:1]=[C:2]([H:8])[H:9]"
O        2.33237891      -0.38910242       0.00896831
C        1.38311218      -0.07117801      -0.75509034
C       -0.31390103       0.23033951       0.39144575
O        0.08759847       0.77117884       1.45528644
C       -1.34289940      -0.80533450       0.16991459
C       -1.39919262       0.57692704      -0.53967682
H        2.13521031       0.03386989       1.36646863
H        0.85115562      -0.82133241      -1.34645757
H        1.43069387       0.90475433      -1.25314330
H        1.39318778       0.35834085       1.78707034
H       -2.05107979      -0.98400292       0.97027625
H       -1.13119293      -1.66978351      -0.44561361
H       -1.22941892       0.58055223      -1.60923544
H       -2.14565245       1.28477109      -0.20021324
14
Frame=4 idx=003041 GeodesicLength=0.34917342613091673 rxn_smarts="[O:1]([C:2]([C:3]1([O:4][H:10])[C:5]([H:11])([H:12])[C:6]1([H:13])[H:14])([H:8])[H:9])[H:7]>>[C:3]1(=[O:4])[C:5]([H:11])([H:12])[C:6]1([H:13])[H:14].[H:7][H:10].[O:1]=[C:2]([H:8])[H:9]"
O        2.31473073      -0.43409068       0.01544870
C        1.39414131      -0.05997827      -0.76203009
C       -0.31333665       0.24763705       0.37487761
O        0.08807984       0.80991629       1.43111933
C       -1.33575836      -0.80285789       0.18782933
C       -1.41761846       0.56454950      -0.54393025
H        2.12229189      -0.01252040       1.38249044
H        0.85060732      -0.75258313      -1.41014542
H        1.50357108       0.92242417      -1.23813840
H        1.37185877       0.34994902       1.79558095
H       -2.03213224      -0.97567508       0.99964994
H       -1.11626198      -1.67731458      -0.41067870
H       -1.26166513       0.55191171      -1.61546449
H       -2.16850812       1.26863229      -0.20660896
14
Frame=5 idx=003041 GeodesicLength=0.4362062952868236 rxn_smarts="[O:1]([C:2]([C:3]1([O:4][H:10])[C:5]([H:11])([H:12])[C:6]1([H:13])[H:14])([H:8])[H:9])[H:7]>>[C:3]1(=[O:4])[C:5]([H:11])([H:12])[C:6]1([H:13])[H:14].[H:7][H:10].[O:1]=[C:2]([H:8])[H:9]"
O        2.29281850      -0.48144412       0.02016400
C        1.40545219      -0.04874109      -0.76939534
C       -0.31315662       0.26512266       0.35757387
O        0.08919953       0.84803758       1.40576141
C       -1.32763687      -0.80027519       0.20581277
C       -1.43634536       0.55143498      -0.54766866
H        2.10579193      -0.06110571       1.39701023
H        0.85125947      -0.67750951      -1.47117408
H        1.58059853       0.93673819      -1.21995175
H        1.35063223       0.34587834       1.80164106
H       -2.01158551      -0.96722795       1.02923054
H       -1.10043028      -1.68395877      -0.37610836
H       -1.29480922       0.52169988      -1.62080491
H       -2.19178851       1.25135070      -0.21209080
14
Frame=6 idx=003041 GeodesicLength=0.5233044566133402 rxn_smarts="[O:1]([C:2]([C:3]1([O:4][H:10])[C:5]([H:11])([H:12])[C:6]1([H:13])[H:14])([H:8])[H:9])[H:7]>>[C:3]1(=[O:4])[C:5]([H:11])([H:12])[C:6]1([H:13])[H:14].[H:7][H:10].[O:1]=[C:2]([H:8])[H:9]"
O        2.26684045      -0.52944603       0.02277936
C        1.41690551      -0.03732211      -0.77714043
C       -0.31344226       0.28242482       0.33972094
O        0.09073110       0.88491532       1.37966976
C       -1.31890571      -0.79756310       0.22374272
C       -1.45520191       0.53767606      -0.55081685
H        2.08637324      -0.10996192       1.40969068
H        0.85401421      -0.59682094      -1.52876864
H        1.66092199       0.94646169      -1.19980321
H        1.32937448       0.34438656       1.80581680
H       -1.99008802      -0.95845364       1.05869181
H       -1.08416621      -1.68980575      -0.34198641
H       -1.32834671       0.49016003      -1.62509760
H       -2.21501014       1.23334901      -0.21649893
14
Frame=7 idx=003041 GeodesicLength=0.6105023902453475 rxn_smarts="[O:1]([C:2]([C:3]1([O:4][H:10])[C:5]([H:11])([H:12])[C:6]1([H:13])[H:14])([H:8])[H:9])[H:7]>>[C:3]1(=[O:4])[C:5]([H:11])([H:12])[C:6]1([H:13])[H:14].[H:7][H:10].[O:1]=[C:2]([H:8])[H:9]"
O        2.23698023      -0.57733987       0.02283820
C        1.42855386      -0.02544490      -0.78521065
C       -0.31424688       0.29936176       0.32146634
O        0.09254474       0.92038107       1.35306361
C       -1.30972003      -0.79473549       0.24172280
C       -1.47399830       0.52314218      -0.55346625
H        2.06419064      -0.15893426       1.42026724
H        0.85886255      -0.51005940      -1.58230102
H        1.74402780       0.95110668      -1.17779895
H        1.30835116       0.34506119       1.80810723
H       -1.96803727      -0.94913722       1.08797254
H       -1.06774673      -1.69502171      -0.30808127
H       -1.36182142       0.45693407      -1.62835269
H       -2.23794033       1.21468590      -0.22022714
14
Frame=8 idx=003041 GeodesicLength=0.6977043904916723 rxn_smarts="[O:1]([C:2]([C:3]1([O:4][H:10])[C:5]([H:11])([H:12])[C:6]1([H:13])[H:14])([H:8])[H:9])[H:7]>>[C:3]1(=[O:4])[C:5]([H:11])([H:12])[C:6]1([H:13])[H:14].[H:7][H:10].[O:1]=[C:2]([H:8])[H:9]"
O        2.20364772      -0.62395813       0.01997046
C        1.44026899      -0.01290854      -0.79357132
C       -0.31564457       0.31560144       0.30307813
O        0.09443386       0.95402759       1.32635625
C       -1.30041721      -0.79181401       0.25975805
C       -1.49250270       0.50781529      -0.55566888
H        2.04004307      -0.20704818       1.42843423
H        0.86615581      -0.41755850      -1.63105865
H        1.82887055       0.95006301      -1.15467664
H        1.28752582       0.34694416       1.80882255
H       -1.94613047      -0.93910310       1.11683509
H       -1.05154467      -1.69976787      -0.27421540
H       -1.39452584       0.42207265      -1.63053782
H       -2.26018036       1.19563420      -0.22352605
14
Frame=9 idx=003041 GeodesicLength=0.7853019546279911 rxn_smarts="[O:1]([C:2]([C:3]1([O:4][H:10])[C:5]([H:11])([H:12])[C:6]1([H:13])[H:14])([H:8])[H:9])[H:7]>>[C:3]1(=[O:4])[C:5]([H:11])([H:12])[C:6]1([H:13])[H:14].[H:7][H:10].[O:1]=[C:2]([H:8])[H:9]"
O        2.16717213      -0.66888973       0.01376483
C        1.45227376       0.00072603      -0.80210251
C       -0.31763950       0.33126968       0.28463483
O        0.09632666       0.98621437       1.29954579
C       -1.29087581      -0.78877346       0.27806361
C       -1.51058376       0.49148646      -0.55758149
H        2.01286951      -0.25609665       1.43428473
H        0.87529086      -0.31786753      -1.67409969
H        1.91545262       0.94284563      -1.13096635
H        1.26744698       0.35063216       1.80766795
H       -1.92426141      -0.92822531       1.14550566
H       -1.03539580      -1.70413790      -0.23998059
H       -1.42618699       0.38494773      -1.63173181
H       -2.28188925       1.17586852      -0.22700496
14
Frame=10 idx=003041 GeodesicLength=0.8729243990504548 rxn_smarts="[O:1]([C:2]([C:3]1([O:4][H:10])[C:5]([H:11])([H:12])[C:6]1([H:13])[H:14])([H:8])[H:9])[H:7]>>[C:3]1(=[O:4])[C:5]([H:11])([H:12])[C:6]1([H:13])[H:14].[H:7][H:10].[O:1]=[C:2]([H:8])[H:9]"
O        2.12810874      -0.71101607       0.00401822
C        1.46416880       0.01543428      -0.81082274
C       -0.32033679       0.34581510       0.26657467
O        0.09794941       1.01622144       1.27329098
C       -1.28174224      -0.78566928       0.29649959
C       -1.52796429       0.47428403      -0.55925871
H        1.98481746      -0.30362470       1.43728248
H        0.88711850      -0.21253936      -1.71079998
H        2.00185152       0.92910683      -1.10763679
H        1.24772096       0.35454966       1.80534327
H       -1.90360438      -0.91639006       1.17351140
H       -1.01984741      -1.70830519      -0.20525288
H       -1.45574950       0.34621208      -1.63194733
H       -2.30249079       1.15592123      -0.23080219
14
Frame=11 idx=003041 GeodesicLength=0.961033386092544 rxn_smarts="[O:1]([C:2]([C:3]1([O:4][H:10])[C:5]([H:11])([H:12])[C:6]1([H:13])[H:14])([H:8])[H:9])[H:7]>>[C:3]1(=[O:4])[C:5]([H:11])([H:12])[C:6]1([H:13])[H:14].[H:7][H:10].[O:1]=[C:2]([H:8])[H:9]"
O        2.08715096      -0.75000309      -0.00941977
C        1.47624940       0.03149062      -0.81949754
C       -0.32371592       0.35930524       0.24905988
O        0.09917720       1.04433821       1.24770654
C       -1.27296110      -0.78252261       0.31520412
C       -1.54450158       0.45604338      -0.56085323
H        1.95525731      -0.35084458       1.43757904
H        0.90062230      -0.09995626      -1.73958130
H        2.08814013       0.90801606      -1.08628953
H        1.22864932       0.35908216       1.80184915
H       -1.88425612      -0.90358100       1.20091569
H       -1.00473453      -1.71231063      -0.16978624
H       -1.48291634       0.30544215      -1.63129723
H       -2.32216101       1.13550034      -0.23558957
14
Frame=12 idx=003041 GeodesicLength=1.0491820768739033 rxn_smarts="[O:1]([C:2]([C:3]1([O:4][H:10])[C:5]([H:11])([H:12])[C:6]1([H:13])[H:14])([H:8])[H:9])[H:7]>>[C:3]1(=[O:4])[C:5]([H:11])([H:12])[C:6]1([H:13])[H:14].[H:7][H:10].[O:1]=[C:2]([H:8])[H:9]"
O        2.04471953      -0.78530867      -0.02668862
C        1.48809842       0.04887996      -0.82819539
C       -0.32782526       0.37143573       0.23242338
O        0.09984399       1.07021398       1.22324338
C       -1.26502789      -0.77933121       0.33410631
C       -1.55999682       0.43688297      -0.56250875
H        1.92592014      -0.39656772       1.43481280
H        0.91683647       0.01806462      -1.75999345
H        2.17212292       0.88003952      -1.06743794
H        1.21010378       0.36344410       1.79761296
H       -1.86706857      -0.88970248       1.22745610
H       -0.99035890      -1.71624439      -0.13330123
H       -1.50681837       0.26324483      -1.62994788
H       -2.34054943       1.11494877      -0.24158167
14
Frame=13 idx=003041 GeodesicLength=1.1378359690577369 rxn_smarts="[O:1]([C:2]([C:3]1([O:4][H:10])[C:5]([H:11])([H:12])[C:6]1([H:13])[H:14])([H:8])[H:9])[H:7]>>[C:3]1(=[O:4])[C:5]([H:11])([H:12])[C:6]1([H:13])[H:14].[H:7][H:10].[O:1]=[C:2]([H:8])[H:9]"
O        2.00179804      -0.81632045      -0.04741965
C        1.50001801       0.06797127      -0.83644974
C       -0.33265333       0.38223573       0.21698494
O        0.09961273       1.09400630       1.20031163
C       -1.25795534      -0.77619624       0.35313698
C       -1.57431244       0.41679578      -0.56429418
H        1.89677448      -0.44109812       1.42942447
H        0.93457974       0.14263519      -1.76961186
H        2.25421149       0.84362326      -1.05492156
H        1.19180207       0.36765012       1.79324603
H       -1.85239668      -0.87505934       1.25283589
H       -0.97650224      -1.72003956      -0.09599163
H       -1.52715776       0.21972953      -1.62799648
H       -2.35781877       1.09406652      -0.24925484
14
Frame=14 idx=003041 GeodesicLength=1.2265494741352032 rxn_smarts="[O:1]([C:2]([C:3]1([O:4][H:10])[C:5]([H:11])([H:12])[C:6]1([H:13])[H:14])([H:8])[H:9])[H:7]>>[C:3]1(=[O:4])[C:5]([H:11])([H:12])[C:6]1([H:13])[H:14].[H:7][H:10].[O:1]=[C:2]([H:8])[H:9]"
O        1.95821641      -0.84354183      -0.07193489
C        1.51162317       0.08838877      -0.84453142
C       -0.33814083       0.39170990       0.20271189
O        0.09869620       1.11581935       1.17877764
C       -1.25199963      -0.77295461       0.37241659
C       -1.58733046       0.39576486      -0.56650359
H        1.86870602      -0.48460030       1.42091513
H        0.95551807       0.27224336      -1.76847501
H        2.33150973       0.80059207      -1.04728100
H        1.17416146       0.37163579       1.78847665
H       -1.84046177      -0.85923654       1.27727546
H       -0.96325862      -1.72371102      -0.05712674
H       -1.54344948       0.17495940      -1.62574489
H       -2.37379029       1.07293077      -0.25897581
14
Frame=15 idx=003041 GeodesicLength=1.315851918255425 rxn_smarts="[O:1]([C:2]([C:3]1([O:4][H:10])[C:5]([H:11])([H:12])[C:6]1([H:13])[H:14])([H:8])[H:9])[H:7]>>[C:3]1(=[O:4])[C:5]([H:11])([H:12])[C:6]1([H:13])[H:14].[H:7][H:10].[O:1]=[C:2]([H:8])[H:9]"
O        1.91551006      -0.86552801      -0.09882536
C        1.52337674       0.11105438      -0.85126102
C       -0.34432293       0.39982147       0.19030286
O        0.09617714       1.13560471       1.15975189
C       -1.24722839      -0.76992882       0.39143632
C       -1.59884786       0.37407974      -0.56903931
H        1.84249093      -0.52599414       1.41052175
H        0.97809858       0.40705699      -1.75273183
H        2.40502656       0.74751762      -1.05290335
H        1.15590123       0.37517206       1.78506100
H       -1.83206145      -0.84330864       1.29971263
H       -0.95028556      -1.72706669      -0.01792613
H       -1.55531612       0.12998559      -1.62324464
H       -2.38851894       1.05153373      -0.27085482
14
Frame=16 idx=003041 GeodesicLength=1.4055092141683858 rxn_smarts="[O:1]([C:2]([C:3]1([O:4][H:10])[C:5]([H:11])([H:12])[C:6]1([H:13])[H:14])([H:8])[H:9])[H:7]>>[C:3]1(=[O:4])[C:5]([H:11])([H:12])[C:6]1([H:13])[H:14].[H:7][H:10].[O:1]=[C:2]([H:8])[H:9]"
O        1.87243631      -0.88402285      -0.12903975
C        1.53482865       0.13493202      -0.85734898
C       -0.35103346       0.40691196       0.17918660
O        0.09285457       1.15390567       1.14226542
C       -1.24361294      -0.76668100       0.41062687
C       -1.60877010       0.35144941      -0.57239564
H        1.81792852      -0.56676469       1.39714949
H        1.00523430       0.54676930      -1.72243812
H        2.47065607       0.68776867      -1.06749075
H        1.13813421       0.37866135       1.78167227
H       -1.82658915      -0.82619692       1.32103244
H       -0.93751306      -1.73006117       0.02318860
H       -1.56255820       0.08382196      -1.62082578
H       -2.40199571       1.02950627      -0.28558266
