15
Frame=0 idx=009335 GeodesicLength=0.0 rxn_smarts="[C:1]([n:2]1[c:3]([H:11])[c:4]([C:5]([H:12])([H:13])[H:14])[c:6]([H:15])[n:7]1)([H:8])([H:9])[H:10]>>[C:1]([N+:2]([C@:3]1([H:11])[C:4]([C:5]([H:12])([H:13])[H:14])=[C:6]1[H:15])=[N-:7])([H:8])([H:9])[H:10]"
C       -2.39459874      -0.51813606      -0.18699407
N       -1.26929003       0.43311833      -0.10229925
C       -0.05539522       0.02832101      -0.64267321
C        1.17432222       0.31071697       0.15038414
C        2.30832760      -0.60849075       0.42832338
C        0.80287758       1.53065316       0.24526111
N       -1.34696710       1.48914011       0.53075523
H       -3.32133343       0.03440186      -0.06809796
H       -2.29154676      -1.26487306       0.59979533
H       -2.37692999      -1.01384888      -1.15773253
H       -0.03104427      -0.43787937      -1.62017369
H        2.69113590      -1.02815143      -0.50413372
H        1.96901635      -1.44185335       1.04819981
H        3.12187227      -0.09070875       0.93511386
H        1.01955362       2.57759014       0.34427151
15
Frame=1 idx=009335 GeodesicLength=0.05695792625982057 rxn_smarts="[C:1]([n:2]1[c:3]([H:11])[c:4]([C:5]([H:12])([H:13])[H:14])[c:6]([H:15])[n:7]1)([H:8])([H:9])[H:10]>>[C:1]([N+:2]([C@:3]1([H:11])[C:4]([C:5]([H:12])([H:13])[H:14])=[C:6]1[H:15])=[N-:7])([H:8])([H:9])[H:10]"
C       -2.40310713      -0.51274482      -0.18027650
N       -1.26803868       0.42349436      -0.08860976
C       -0.05528183       0.02410457      -0.64104362
C        1.17148015       0.30182670       0.14930205
C        2.31633242      -0.60473306       0.42124444
C        0.79199917       1.52406194       0.23713849
N       -1.33007457       1.48091098       0.54786579
H       -3.32551773       0.05761037      -0.12674346
H       -2.34304899      -1.22288179       0.64380655
H       -2.36120516      -1.05533977      -1.12467339
H       -0.04071415      -0.44574697      -1.61691562
H        2.75279426      -0.95463327      -0.51633636
H        1.97708962      -1.48379808       0.97423457
H        3.09199008      -0.10093843       0.99718191
H        1.02530255       2.56880726       0.32382489
15
Frame=2 idx=009335 GeodesicLength=0.11416442009985972 rxn_smarts="[C:1]([n:2]1[c:3]([H:11])[c:4]([C:5]([H:12])([H:13])[H:14])[c:6]([H:15])[n:7]1)([H:8])([H:9])[H:10]>>[C:1]([N+:2]([C@:3]1([H:11])[C:4]([C:5]([H:12])([H:13])[H:14])=[C:6]1[H:15])=[N-:7])([H:8])([H:9])[H:10]"
C       -2.41142903      -0.50744823      -0.17318428
N       -1.26618464       0.41275037      -0.07324987
C       -0.05523254       0.01979250      -0.63964399
C        1.16932704       0.29332467       0.14666870
C        2.32436675      -0.60073022       0.41388696
C        0.78139266       1.51761165       0.22827035
N       -1.31285547       1.47198614       0.56552514
H       -3.32565743       0.07886115      -0.18684867
H       -2.39705257      -1.17805496       0.68519284
H       -2.34630575      -1.09668628      -1.08768293
H       -0.05120299      -0.45409400      -1.61358327
H        2.81376091      -0.87801801      -0.52175587
H        1.98837233      -1.52198700       0.89534122
H        3.05833982      -0.11726977       1.05813203
H        1.03036092       2.55996198       0.30293165
15
Frame=3 idx=009335 GeodesicLength=0.17140321836554784 rxn_smarts="[C:1]([n:2]1[c:3]([H:11])[c:4]([C:5]([H:12])([H:13])[H:14])[c:6]([H:15])[n:7]1)([H:8])([H:9])[H:10]>>[C:1]([N+:2]([C@:3]1([H:11])[C:4]([C:5]([H:12])([H:13])[H:14])=[C:6]1[H:15])=[N-:7])([H:8])([H:9])[H:10]"
C       -2.41964559      -0.50215727      -0.16600951
N       -1.26377106       0.40085955      -0.05628597
C       -0.05529249       0.01531820      -0.63837717
C        1.16778388       0.28512969       0.14264663
C        2.33248617      -0.59647299       0.40631208
C        0.77094862       1.51121832       0.21885327
N       -1.29532251       1.46223115       0.58389373
H       -3.32169794       0.09791464      -0.24801503
H       -2.45331357      -1.13050905       0.72309925
H       -2.33260101      -1.13733096      -1.04718541
H       -0.06247084      -0.46292682      -1.61008871
H        2.87290400      -0.79987796      -0.52009803
H        2.00349052      -1.55529899       0.81326407
H        3.02185199      -0.13909742       1.11585896
H        1.03464982       2.55099989       0.28213182
15
Frame=4 idx=009335 GeodesicLength=0.2282273601239226 rxn_smarts="[C:1]([n:2]1[c:3]([H:11])[c:4]([C:5]([H:12])([H:13])[H:14])[c:6]([H:15])[n:7]1)([H:8])([H:9])[H:10]>>[C:1]([N+:2]([C@:3]1([H:11])[C:4]([C:5]([H:12])([H:13])[H:14])=[C:6]1[H:15])=[N-:7])([H:8])([H:9])[H:10]"
C       -2.42774057      -0.49679377      -0.15923083
N       -1.26103261       0.38812594      -0.03836422
C       -0.05546565       0.01071502      -0.63710486
C        1.16648082       0.27699086       0.13801457
C        2.34064478      -0.59203551       0.39853842
C        0.76043891       1.50468666       0.20955941
N       -1.27780530       1.45180624       0.60257751
H       -3.31378594       0.11431758      -0.30990664
H       -2.51102550      -1.08019260       0.75670249
H       -2.32026137      -1.17693013      -1.00370230
H       -0.07416000      -0.47209340      -1.60632837
H        2.92797085      -0.72274596      -0.51220745
H        2.02289246      -1.58267142       0.73113882
H        2.98467751      -0.16484736       1.16728086
H        1.03817161       2.54166785       0.26303259
15
Frame=5 idx=009335 GeodesicLength=0.28551976417913 rxn_smarts="[C:1]([n:2]1[c:3]([H:11])[c:4]([C:5]([H:12])([H:13])[H:14])[c:6]([H:15])[n:7]1)([H:8])([H:9])[H:10]>>[C:1]([N+:2]([C@:3]1([H:11])[C:4]([C:5]([H:12])([H:13])[H:14])=[C:6]1[H:15])=[N-:7])([H:8])([H:9])[H:10]"
C       -2.43556156      -0.49139460      -0.15183195
N       -1.25756069       0.37408535      -0.01858058
C       -0.05589166       0.00600279      -0.63620243
C        1.16590394       0.26932936       0.13124232
C        2.34874384      -0.58738536       0.39036208
C        0.75005099       1.49830839       0.19925683
N       -1.25972231       1.44059644       0.62194028
H       -3.30123710       0.12807291      -0.37280428
H       -2.57082382      -1.02627220       0.78709119
H       -2.30910927      -1.21612106      -0.95549832
H       -0.08699894      -0.48199555      -1.60242783
H        2.98260241      -0.64293705      -0.49645682
H        2.04560964      -1.60552386       0.64378221
H        2.94307933      -0.19721012       1.21689039
H        1.04091520       2.53244457       0.24323689
15
Frame=6 idx=009335 GeodesicLength=0.3423920850773673 rxn_smarts="[C:1]([n:2]1[c:3]([H:11])[c:4]([C:5]([H:12])([H:13])[H:14])[c:6]([H:15])[n:7]1)([H:8])([H:9])[H:10]>>[C:1]([N+:2]([C@:3]1([H:11])[C:4]([C:5]([H:12])([H:13])[H:14])=[C:6]1[H:15])=[N-:7])([H:8])([H:9])[H:10]"
C       -2.44305689      -0.48592787      -0.14474320
N       -1.25358389       0.35903815       0.00227589
C       -0.05643050       0.00117495      -0.63535143
C        1.16571315       0.26204484       0.12345107
C        2.35676211      -0.58245776       0.38215697
C        0.73950509       1.49201594       0.18872098
N       -1.24133909       1.42830508       0.64220874
H       -3.28453801       0.13888012      -0.43491464
H       -2.63090915      -0.97013780       0.81232433
H       -2.30001647      -1.25313314      -0.90494731
H       -0.10027142      -0.49255812      -1.59809699
H        3.03297601      -0.56503951      -0.47432158
H        2.07174191      -1.62204914       0.55682776
H        2.90084494      -0.23343997       1.26030426
H        1.04260223       2.52328423       0.22410515
15
Frame=7 idx=009335 GeodesicLength=0.3994446620847869 rxn_smarts="[C:1]([n:2]1[c:3]([H:11])[c:4]([C:5]([H:12])([H:13])[H:14])[c:6]([H:15])[n:7]1)([H:8])([H:9])[H:10]>>[C:1]([N+:2]([C@:3]1([H:11])[C:4]([C:5]([H:12])([H:13])[H:14])=[C:6]1[H:15])=[N-:7])([H:8])([H:9])[H:10]"
C       -2.45038158      -0.48013735      -0.13744003
N       -1.24905970       0.34284881       0.02455021
C       -0.05723932      -0.00415919      -0.63433557
C        1.16589440       0.25497535       0.11450491
C        2.36485022      -0.57724291       0.37375997
C        0.72880727       1.48567400       0.17756116
N       -1.22248684       1.41515922       0.66314925
H       -3.26358248       0.14690179      -0.49649225
H       -2.69173487      -0.91087969       0.83297095
H       -2.29312493      -1.28823523      -0.85100752
H       -0.11425171      -0.50458417      -1.59287932
H        3.08120225      -0.48590358      -0.44445259
H        2.10203478      -1.63300375       0.46654450
H        2.85580789      -0.27554754       1.29967772
H        1.04326460       2.51413424       0.20388862
15
Frame=8 idx=009335 GeodesicLength=0.4564231709981021 rxn_smarts="[C:1]([n:2]1[c:3]([H:11])[c:4]([C:5]([H:12])([H:13])[H:14])[c:6]([H:15])[n:7]1)([H:8])([H:9])[H:10]>>[C:1]([N+:2]([C@:3]1([H:11])[C:4]([C:5]([H:12])([H:13])[H:14])=[C:6]1[H:15])=[N-:7])([H:8])([H:9])[H:10]"
C       -2.45681717      -0.47451970      -0.12982345
N       -1.24397461       0.32620454       0.04688363
C       -0.05826937      -0.00897466      -0.63441591
C        1.16645687       0.24863457       0.10329285
C        2.37220063      -0.57198827       0.36513760
C        0.71793292       1.47967416       0.16559648
N       -1.20314503       1.40127686       0.68429396
H       -3.23859356       0.15046838      -0.55677846
H       -2.75098617      -0.84849287       0.84935998
H       -2.28769961      -1.32196857      -0.79324082
H       -0.12889082      -0.51661614      -1.58817905
H        3.12558032      -0.40936291      -0.40733350
H        2.13448149      -1.63754795       0.37626351
H        2.80848733      -0.32199858       1.33307429
H        1.04323679       2.50521114       0.18586889
15
Frame=9 idx=009335 GeodesicLength=0.5133118202922913 rxn_smarts="[C:1]([n:2]1[c:3]([H:11])[c:4]([C:5]([H:12])([H:13])[H:14])[c:6]([H:15])[n:7]1)([H:8])([H:9])[H:10]>>[C:1]([N+:2]([C@:3]1([H:11])[C:4]([C:5]([H:12])([H:13])[H:14])=[C:6]1[H:15])=[N-:7])([H:8])([H:9])[H:10]"
C       -2.46310047      -0.46840674      -0.12240501
N       -1.23862710       0.30892706       0.06963609
C       -0.05949824      -0.01455350      -0.63404860
C        1.16702272       0.24228658       0.09185408
C        2.37960982      -0.56640264       0.35656192
C        0.70670167       1.47347764       0.15331626
N       -1.18341769       1.38653532       0.70597777
H       -3.21046651       0.15106461      -0.61481016
H       -2.80885737      -0.78386993       0.86036808
H       -2.28526064      -1.35245453      -0.73377630
H       -0.14364646      -0.53046931      -1.58222054
H        3.16576454      -0.33382513      -0.36344084
H        2.17111051      -1.63565986       0.28549123
H        2.76050852      -0.37282521       1.36033208
H        1.04215670       2.49617565       0.16716394
15
Frame=10 idx=009335 GeodesicLength=0.5700584255003821 rxn_smarts="[C:1]([n:2]1[c:3]([H:11])[c:4]([C:5]([H:12])([H:13])[H:14])[c:6]([H:15])[n:7]1)([H:8])([H:9])[H:10]>>[C:1]([N+:2]([C@:3]1([H:11])[C:4]([C:5]([H:12])([H:13])[H:14])=[C:6]1[H:15])=[N-:7])([H:8])([H:9])[H:10]"
C       -2.46870211      -0.46214924      -0.11485870
N       -1.23297825       0.29164337       0.09183292
C       -0.06081251      -0.02018702      -0.63409711
C        1.16762589       0.23635579       0.07953049
C        2.38646986      -0.56068065       0.34831297
C        0.69519148       1.46747307       0.14040509
N       -1.16321221       1.37129326       0.72763042
H       -3.18008995       0.14798582      -0.66903436
H       -2.86302091      -0.71796838       0.86681187
H       -2.28538156      -1.37964880      -0.67309427
H       -0.15836273      -0.54549277      -1.57578381
H        3.20139979      -0.26070607      -0.31216913
H        2.21052923      -1.62705341       0.19492019
H        2.71113090      -0.42824705       1.38152037
H        1.04021308       2.48738208       0.14807306
15
Frame=11 idx=009335 GeodesicLength=0.6273174408284483 rxn_smarts="[C:1]([n:2]1[c:3]([H:11])[c:4]([C:5]([H:12])([H:13])[H:14])[c:6]([H:15])[n:7]1)([H:8])([H:9])[H:10]>>[C:1]([N+:2]([C@:3]1([H:11])[C:4]([C:5]([H:12])([H:13])[H:14])=[C:6]1[H:15])=[N-:7])([H:8])([H:9])[H:10]"
C       -2.47366745      -0.45560302      -0.10654892
N       -1.22693509       0.27448654       0.11341832
C       -0.06235389      -0.02610801      -0.63483276
C        1.16836662       0.23078207       0.06549315
C        2.39270602      -0.55490166       0.34032751
C        0.68352337       1.46161099       0.12599960
N       -1.14212608       1.35582412       0.74890612
H       -3.14790328       0.14101751      -0.71940915
H       -2.91335584      -0.65012117       0.86972944
H       -2.28792036      -1.40385013      -0.61006286
H       -0.17344167      -0.56209467      -1.56896516
H        3.23352444      -0.18798681      -0.25003821
H        2.25442523      -1.61095360       0.10144264
H        2.65747069      -0.49085073       1.39703962
H        1.03768731       2.47874858       0.12750067
15
Frame=12 idx=009335 GeodesicLength=0.6838680949988002 rxn_smarts="[C:1]([n:2]1[c:3]([H:11])[c:4]([C:5]([H:12])([H:13])[H:14])[c:6]([H:15])[n:7]1)([H:8])([H:9])[H:10]>>[C:1]([N+:2]([C@:3]1([H:11])[C:4]([C:5]([H:12])([H:13])[H:14])=[C:6]1[H:15])=[N-:7])([H:8])([H:9])[H:10]"
C       -2.47806527      -0.44898807      -0.09894916
N       -1.22105583       0.25788800       0.13364136
C       -0.06370516      -0.03197097      -0.63543540
C        1.16866592       0.22533057       0.05259583
C        2.39854372      -0.54901051       0.33274981
C        0.67141340       1.45578469       0.11242106
N       -1.12127230       1.34023765       0.76963180
H       -3.11511701       0.13063813      -0.76606672
H       -2.95903179      -0.58223282       0.86793563
H       -2.29265893      -1.42446726      -0.54778325
H       -0.18749195      -0.57920420      -1.56142369
H        3.25815400      -0.12193362      -0.18550379
H        2.29944725      -1.58813748       0.01389489
H        2.60777428      -0.55407765       1.40389747
H        1.03439969       2.47014355       0.10839415
15
Frame=13 idx=009335 GeodesicLength=0.741129163770599 rxn_smarts="[C:1]([n:2]1[c:3]([H:11])[c:4]([C:5]([H:12])([H:13])[H:14])[c:6]([H:15])[n:7]1)([H:8])([H:9])[H:10]>>[C:1]([N+:2]([C@:3]1([H:11])[C:4]([C:5]([H:12])([H:13])[H:14])=[C:6]1[H:15])=[N-:7])([H:8])([H:9])[H:10]"
C       -2.48190026      -0.44206586      -0.09048542
N       -1.21490236       0.24177146       0.15292960
C       -0.06524365      -0.03818494      -0.63672137
C        1.16899951       0.22007706       0.03822238
C        2.40372542      -0.54316806       0.32542984
C        0.65920845       1.45000878       0.09734782
N       -1.09955021       1.32482668       0.78948323
H       -3.08161328       0.11620475      -0.80897165
H       -3.00053644      -0.51256198       0.86326221
H       -2.29939989      -1.44215552      -0.48308192
H       -0.20177442      -0.59774877      -1.55352395
H        3.27804951      -0.05743749      -0.10967165
H        2.34948795      -1.55675972      -0.07553110
H        2.55459050      -0.62434677       1.40345322
H        1.03085918       2.46154038       0.08785876
15
Frame=14 idx=009335 GeodesicLength=0.7978478433677217 rxn_smarts="[C:1]([n:2]1[c:3]([H:11])[c:4]([C:5]([H:12])([H:13])[H:14])[c:6]([H:15])[n:7]1)([H:8])([H:9])[H:10]>>[C:1]([N+:2]([C@:3]1([H:11])[C:4]([C:5]([H:12])([H:13])[H:14])=[C:6]1[H:15])=[N-:7])([H:8])([H:9])[H:10]"
C       -2.48514981      -0.43523833      -0.08260384
N       -1.20894549       0.22640599       0.17077622
C       -0.06655628      -0.04405454      -0.63808258
C        1.16892444       0.21503048       0.02493006
C        2.40845668      -0.53731657       0.31845859
C        0.64665699       1.44437937       0.08321927
N       -1.07815810       1.30961166       0.80849089
H       -3.04827477       0.09812782      -0.84855383
H       -3.03735543      -0.44300996       0.85453662
H       -2.30769418      -1.45669261      -0.41878829
H       -0.21502113      -0.61626502      -1.54521375
H        3.29066298      -0.00066596      -0.03251073
H        2.39966521      -1.51900854      -0.15815003
H        2.50597416      -0.69435548       1.39438951
H        1.02681472       2.45305169       0.06910187
15
Frame=15 idx=009335 GeodesicLength=0.8548546330995294 rxn_smarts="[C:1]([n:2]1[c:3]([H:11])[c:4]([C:5]([H:12])([H:13])[H:14])[c:6]([H:15])[n:7]1)([H:8])([H:9])[H:10]>>[C:1]([N+:2]([C@:3]1([H:11])[C:4]([C:5]([H:12])([H:13])[H:14])=[C:6]1[H:15])=[N-:7])([H:8])([H:9])[H:10]"
C       -2.48834510      -0.42789770      -0.07449842
N       -1.20335592       0.21203392       0.18741721
C       -0.06796912      -0.05059923      -0.63921409
C        1.16831252       0.20937294       0.01251915
C        2.41299049      -0.53159745       0.31170985
C        0.63404370       1.43831791       0.06884626
N       -1.05683256       1.29542635       0.82577009
H       -3.01550364       0.07633117      -0.88496904
H       -3.07027255      -0.37237366       0.84262622
H       -2.31794340      -1.46786481      -0.35309336
H       -0.22790723      -0.63623868      -1.53581827
H        3.29654292       0.05258593       0.05222311
H        2.45439902      -1.47243251      -0.23953781
H        2.45886525      -0.76898664       1.37645539
H        1.02297562       2.44392247       0.04956373
15
Frame=16 idx=009335 GeodesicLength=0.9120596856365095 rxn_smarts="[C:1]([n:2]1[c:3]([H:11])[c:4]([C:5]([H:12])([H:13])[H:14])[c:6]([H:15])[n:7]1)([H:8])([H:9])[H:10]>>[C:1]([N+:2]([C@:3]1([H:11])[C:4]([C:5]([H:12])([H:13])[H:14])=[C:6]1[H:15])=[N-:7])([H:8])([H:9])[H:10]"
C       -2.49067215      -0.42078450      -0.06601779
N       -1.19745326       0.19821384       0.20313806
C       -0.06919511      -0.05669740      -0.64098828
C        1.16776157       0.20439570      -0.00045958
C        2.41681351      -0.52584697       0.30542240
C        0.62128590       1.43271592       0.05415698
N       -1.03517308       1.28152787       0.84217391
H       -2.98298919       0.05075902      -0.91749153
H       -3.09846443      -0.30169975       0.82777235
H       -2.32926661      -1.47612391      -0.28664373
H       -0.24025391      -0.65634515      -1.52627546
H        3.29587872       0.09847983       0.14287245
H        2.51041103      -1.41764917      -0.31630011
H        2.41280304      -0.84625984       1.34933833
H        1.01851397       2.43531452       0.02930200
