15
Frame=0 idx=006421 GeodesicLength=0.0 rxn_smarts="[C:1]([O:2][C:3](=[O:4])[C@@:5]([C:6]([H:12])([H:13])[H:14])([O:7][H:15])[H:11])([H:8])([H:9])[H:10]>>[C:1]([O:2][C:6]([H:12])([H:13])[H:14])([H:8])([H:9])[H:10].[C:3](=[O:4])=[C:5]([O:7][H:15])[H:11]"
C        2.01248679       0.23446523       0.29575717
O        0.63314760       0.31844574       0.60325043
C       -0.20559386      -0.88047856       0.24093307
O        0.31617178      -1.79007948      -0.37099648
C       -1.49726464      -0.61127097       0.60292263
C       -0.44020037       1.26581200      -0.69108091
O       -2.50905212      -1.43892363       0.19043927
H        2.58263653       0.27033682       1.22431885
H        2.28796046       1.09146892      -0.32686225
H        2.21331126      -0.69077650      -0.24432545
H       -1.76714261       0.10626184       1.35889626
H        0.41197895       1.93445214      -0.75615332
H       -1.32871479       1.71123935      -0.27341406
H       -0.60401243       0.64972012      -1.56500767
H       -2.10571260      -2.17067304      -0.28867758
15
Frame=1 idx=006421 GeodesicLength=0.07549329262661536 rxn_smarts="[C:1]([O:2][C:3](=[O:4])[C@@:5]([C:6]([H:12])([H:13])[H:14])([O:7][H:15])[H:11])([H:8])([H:9])[H:10]>>[C:1]([O:2][C:6]([H:12])([H:13])[H:14])([H:8])([H:9])[H:10].[C:3](=[O:4])=[C:5]([O:7][H:15])[H:11]"
C        2.02109952       0.23669991       0.29560280
O        0.64066659       0.32483473       0.59606337
C       -0.20467218      -0.89699257       0.25590727
O        0.31446027      -1.80749089      -0.35281584
C       -1.50010646      -0.60176453       0.59426392
C       -0.44651698       1.25983337      -0.69452006
O       -2.51141391      -1.45197874       0.22649443
H        2.58358937       0.22913774       1.22944923
H        2.30840743       1.11559397      -0.28981591
H        2.22038088      -0.66710463      -0.28039760
H       -1.75530030       0.10799099       1.36372613
H        0.39015075       1.94926533      -0.75414981
H       -1.34729611       1.71076430      -0.30854668
H       -0.58751476       0.64739387      -1.57595374
H       -2.12593411      -2.15618286      -0.30530750
15
Frame=2 idx=006421 GeodesicLength=0.1505004675178947 rxn_smarts="[C:1]([O:2][C:3](=[O:4])[C@@:5]([C:6]([H:12])([H:13])[H:14])([O:7][H:15])[H:11])([H:8])([H:9])[H:10]>>[C:1]([O:2][C:6]([H:12])([H:13])[H:14])([H:8])([H:9])[H:10].[C:3](=[O:4])=[C:5]([O:7][H:15])[H:11]"
C        2.02990844       0.23902842       0.29507138
O        0.64850627       0.33137281       0.58905216
C       -0.20331253      -0.91367374       0.27226068
O        0.31319388      -1.82463294      -0.33397323
C       -1.50204335      -0.59333647       0.58668770
C       -0.45341467       1.25356314      -0.69720115
O       -2.51210672      -1.46229789       0.25765094
H        2.58466732       0.18928803       1.23220291
H        2.32866407       1.13744233      -0.25358390
H        2.22723681      -0.64303514      -0.31458770
H       -1.74362166       0.10883734       1.36858616
H        0.36696805       1.96368980      -0.75164221
H       -1.36618448       1.70873249      -0.34383776
H       -0.57112304       0.64514697      -1.58582437
H       -2.14733840      -2.14012514      -0.32086160
15
Frame=3 idx=006421 GeodesicLength=0.2250994356515167 rxn_smarts="[C:1]([O:2][C:3](=[O:4])[C@@:5]([C:6]([H:12])([H:13])[H:14])([O:7][H:15])[H:11])([H:8])([H:9])[H:10]>>[C:1]([O:2][C:6]([H:12])([H:13])[H:14])([H:8])([H:9])[H:10].[C:3](=[O:4])=[C:5]([O:7][H:15])[H:11]"
C        2.03895351       0.24141004       0.29413892
O        0.65669574       0.33799665       0.58207070
C       -0.20150103      -0.93054041       0.28989105
O        0.31231853      -1.84152201      -0.31462081
C       -1.50295132      -0.58596800       0.58047020
C       -0.46101460       1.24700819      -0.69903718
O       -2.51203508      -1.46910255       0.28288029
H        2.58587936       0.15137039       1.23283182
H        2.34881074       1.15684500      -0.21877004
H        2.23419293      -0.61909654      -0.34649028
H       -1.73199419       0.10879309       1.37385282
H        0.34231932       1.97767022      -0.74860205
H       -1.38537783       1.70509815      -0.37897834
H       -0.55514577       0.64309167      -1.59455045
H       -2.16915031      -2.12305388      -0.33508665
15
Frame=4 idx=006421 GeodesicLength=0.2994624796991176 rxn_smarts="[C:1]([O:2][C:3](=[O:4])[C@@:5]([C:6]([H:12])([H:13])[H:14])([O:7][H:15])[H:11])([H:8])([H:9])[H:10]>>[C:1]([O:2][C:6]([H:12])([H:13])[H:14])([H:8])([H:9])[H:10].[C:3](=[O:4])=[C:5]([O:7][H:15])[H:11]"
C        2.04819580       0.24378038       0.29285926
O        0.66515109       0.34469690       0.57493060
C       -0.19939725      -0.94748903       0.30846982
O        0.31170453      -1.85814976      -0.29491822
C       -1.50296220      -0.57941722       0.57537427
C       -0.46923463       1.24036096      -0.70017352
O       -2.51175267      -1.47288907       0.30304310
H        2.58706820       0.11503266       1.23166436
H        2.36903713       1.17404258      -0.18509881
H        2.24130560      -0.59534158      -0.37642336
H       -1.72042949       0.10808281       1.37942833
H        0.31633716       1.99132764      -0.74500721
H       -1.40471911       1.70007342      -0.41403531
H       -0.53951550       0.64153935      -1.60233176
H       -2.19078864      -2.10565005      -0.34778155
15
Frame=5 idx=006421 GeodesicLength=0.37369068528341776 rxn_smarts="[C:1]([O:2][C:3](=[O:4])[C@@:5]([C:6]([H:12])([H:13])[H:14])([O:7][H:15])[H:11])([H:8])([H:9])[H:10]>>[C:1]([O:2][C:6]([H:12])([H:13])[H:14])([H:8])([H:9])[H:10].[C:3](=[O:4])=[C:5]([O:7][H:15])[H:11]"
C        2.05758174       0.24609900       0.29130554
O        0.67378276       0.35149243       0.56747845
C       -0.19714707      -0.96441588       0.32772787
O        0.31125442      -1.87451018      -0.27494217
C       -1.50222763      -0.57346751       0.57111778
C       -0.47798015       1.23376728      -0.70080247
O       -2.51142559      -1.47448162       0.31948309
H        2.58805448       0.07982989       1.22896494
H        2.38948771       1.18928811      -0.15214575
H        2.24858063      -0.57167744      -0.40475239
H       -1.70894211       0.10693783       1.38513351
H        0.28916781       2.00473470      -0.74091019
H       -1.42402900       1.69385423      -0.44913081
H       -0.52414492       0.64071455      -1.60938584
H       -2.21201307      -2.08816538      -0.35914154
15
Frame=6 idx=006421 GeodesicLength=0.44783227209598725 rxn_smarts="[C:1]([O:2][C:3](=[O:4])[C@@:5]([C:6]([H:12])([H:13])[H:14])([O:7][H:15])[H:11])([H:8])([H:9])[H:10]>>[C:1]([O:2][C:6]([H:12])([H:13])[H:14])([H:8])([H:9])[H:10].[C:3](=[O:4])=[C:5]([O:7][H:15])[H:11]"
C        2.06706445       0.24833707       0.28954239
O        0.68251688       0.35840272       0.55959077
C       -0.19487119      -0.98123480       0.34743006
O        0.31089646      -1.89058633      -0.25477503
C       -1.50088467      -0.56795209       0.56742364
C       -0.48716450       1.22734799      -0.70109519
O       -2.51111886      -1.47449145       0.33325487
H        2.58867466       0.04534614       1.22490524
H        2.41026444       1.20277902      -0.11947845
H        2.25602401      -0.54795342      -0.43180379
H       -1.69754687       0.10554196       1.39077305
H        0.26093889       2.01795489      -0.73634255
H       -1.44313939       1.68661457      -0.48436153
H       -0.50894636       0.64081582      -1.61590350
H       -2.23270794      -2.07092212      -0.36915998
15
Frame=7 idx=006421 GeodesicLength=0.5219135867304717 rxn_smarts="[C:1]([O:2][C:3](=[O:4])[C@@:5]([C:6]([H:12])([H:13])[H:14])([O:7][H:15])[H:11])([H:8])([H:9])[H:10]>>[C:1]([O:2][C:6]([H:12])([H:13])[H:14])([H:8])([H:9])[H:10].[C:3](=[O:4])=[C:5]([O:7][H:15])[H:11]"
C        2.07662360       0.25048268       0.28761966
O        0.69131398       0.36544072       0.55116431
C       -0.19263032      -0.99790714       0.36744389
O        0.31059460      -1.90638528      -0.23445762
C       -1.49901069      -0.56278295       0.56414914
C       -0.49675812       1.22114336      -0.70117864
O       -2.51081152      -1.47336075       0.34510363
H        2.58881678       0.01143253       1.21962845
H        2.43141081       1.21460513      -0.08688299
H        2.26372674      -0.52412288      -0.45770343
H       -1.68622693       0.10400118       1.39626580
H        0.23170736       2.03098474      -0.73136697
H       -1.46193549       1.67845455      -0.51973171
H       -0.49393513       0.64193410      -1.62201185
H       -2.25288565      -2.05391998      -0.37804168
15
Frame=8 idx=006421 GeodesicLength=0.5959469744633168 rxn_smarts="[C:1]([O:2][C:3](=[O:4])[C@@:5]([C:6]([H:12])([H:13])[H:14])([O:7][H:15])[H:11])([H:8])([H:9])[H:10]>>[C:1]([O:2][C:6]([H:12])([H:13])[H:14])([H:8])([H:9])[H:10].[C:3](=[O:4])=[C:5]([O:7][H:15])[H:11]"
C        2.08625080       0.25253316       0.28557630
O        0.70015231       0.37261174       0.54210346
C       -0.19045861      -1.01441607       0.38768305
O        0.31032638      -1.92191980      -0.21401600
C       -1.49665420      -0.55790877       0.56120906
C       -0.50675039       1.21515465      -0.70115375
O       -2.51047065      -1.47138720       0.35553150
H        2.58839909      -0.02196230       1.21324742
H        2.45293771       1.22481745      -0.05422199
H        2.27181022      -0.50016324      -0.48250939
H       -1.67495328       0.10238017       1.40157533
H        0.20150170       2.04379267      -0.72604370
H       -1.48033176       1.66943822      -0.55520420
H       -0.47916198       0.64411453      -1.62780676
H       -2.27259735      -2.03708520      -0.38597032
15
Frame=9 idx=006421 GeodesicLength=0.6699430112895027 rxn_smarts="[C:1]([O:2][C:3](=[O:4])[C@@:5]([C:6]([H:12])([H:13])[H:14])([O:7][H:15])[H:11])([H:8])([H:9])[H:10]>>[C:1]([O:2][C:6]([H:12])([H:13])[H:14])([H:8])([H:9])[H:10].[C:3](=[O:4])=[C:5]([O:7][H:15])[H:11]"
C        2.09594726       0.25448550       0.28345282
O        0.70901859       0.37991433       0.53230237
C       -0.18837703      -1.03075771       0.40806375
O        0.31007372      -1.93720069      -0.19350775
C       -1.49384913      -0.55329506       0.55853816
C       -0.51714105       1.20937365      -0.70111315
O       -2.51006692      -1.46877823       0.36490364
H        2.58734050      -0.05482956       1.20589468
H        2.47483690       1.23344563      -0.02140192
H        2.28043919      -0.47608480      -0.50623200
H       -1.66368259       0.10072022       1.40668387
H        0.17034446       2.05633541      -0.72044610
H       -1.49825646       1.65964294      -0.59069303
H       -0.46471961       0.64739298      -1.63338097
H       -2.29190784      -2.02036462      -0.39306437
15
Frame=10 idx=006421 GeodesicLength=0.7439097067105063 rxn_smarts="[C:1]([O:2][C:3](=[O:4])[C@@:5]([C:6]([H:12])([H:13])[H:14])([O:7][H:15])[H:11])([H:8])([H:9])[H:10]>>[C:1]([O:2][C:6]([H:12])([H:13])[H:14])([H:8])([H:9])[H:10].[C:3](=[O:4])=[C:5]([O:7][H:15])[H:11]"
C        2.10571264       0.25634534       0.28127922
O        0.71790732       0.38734502       0.52167296
C       -0.18639871      -1.04693220       0.42854137
O        0.30982771      -1.95224239      -0.17294615
C       -1.49061979      -0.54891405       0.55609130
C       -0.52792317       1.20376967      -0.70114085
O       -2.50957827      -1.46566984       0.37347790
H        2.58559274      -0.08721072       1.19763222
H        2.49707733       1.24052833       0.01171956
H        2.28974190      -0.45183512      -0.52892100
H       -1.65237897       0.09906515       1.41157513
H        0.13825038       2.06856077      -0.71463061
H       -1.51565910       1.64911718      -0.62613855
H       -0.45067527       0.65177610      -1.63881694
H       -2.31087674      -2.00370324      -0.39939557
15
Frame=11 idx=006421 GeodesicLength=0.817857240613165 rxn_smarts="[C:1]([O:2][C:3](=[O:4])[C@@:5]([C:6]([H:12])([H:13])[H:14])([O:7][H:15])[H:11])([H:8])([H:9])[H:10]>>[C:1]([O:2][C:6]([H:12])([H:13])[H:14])([H:8])([H:9])[H:10].[C:3](=[O:4])=[C:5]([O:7][H:15])[H:11]"
C        2.11555440       0.25811665       0.27908939
O        0.72681910       0.39489285       0.51011204
C       -0.18452847      -1.06294841       0.44906917
O        0.30958083      -1.96705880      -0.15237035
C       -1.48698055      -0.54474661       0.55383596
C       -0.53909691       1.19830721      -0.70131710
O       -2.50898428      -1.46216090       0.38145656
H        2.58310758      -0.11909682       1.18854496
H        2.51960908       1.24608621       0.04524867
H        2.29988742      -0.42739455      -0.55057986
H       -1.64099273       0.09744567       1.41624624
H        0.10523475       2.08040614      -0.70866789
H       -1.53250449       1.63792553      -0.66144316
H       -0.43713525       0.65726450      -1.64420066
H       -2.32957048      -1.98703867      -0.40502397
15
Frame=12 idx=006421 GeodesicLength=0.8917951347749812 rxn_smarts="[C:1]([O:2][C:3](=[O:4])[C@@:5]([C:6]([H:12])([H:13])[H:14])([O:7][H:15])[H:11])([H:8])([H:9])[H:10]>>[C:1]([O:2][C:6]([H:12])([H:13])[H:14])([H:8])([H:9])[H:10].[C:3](=[O:4])=[C:5]([O:7][H:15])[H:11]"
C        2.12548165       0.25980288       0.27691841
O        0.73575969       0.40253962       0.49750746
C       -0.18276740      -1.07881948       0.46959826
O        0.30932602      -1.98166290      -0.13183135
C       -1.48293920      -0.54077613       0.55174036
C       -0.55066049       1.19294873      -0.70171859
O       -2.50827054      -1.45831662       0.38900278
H        2.57984026      -0.15047452       1.17871380
H        2.54236437       1.25013406       0.07929348
H        2.31105633      -0.40274228      -0.57119821
H       -1.62946533       0.09588990       1.42069087
H        0.07131469       2.09180758      -0.70262391
H       -1.54877391       1.62614109      -0.69650401
H       -0.42421091       0.66385836      -1.64962185
H       -2.34805522      -1.97033028      -0.40996750
15
Frame=13 idx=006421 GeodesicLength=0.9657360901422887 rxn_smarts="[C:1]([O:2][C:3](=[O:4])[C@@:5]([C:6]([H:12])([H:13])[H:14])([O:7][H:15])[H:11])([H:8])([H:9])[H:10]>>[C:1]([O:2][C:6]([H:12])([H:13])[H:14])([H:8])([H:9])[H:10].[C:3](=[O:4])=[C:5]([O:7][H:15])[H:11]"
C        2.13550706       0.26140912       0.27480179
O        0.74474113       0.41025867       0.48373577
C       -0.18111112      -1.09456472       0.49008568
O        0.30905736      -1.99607110      -0.11138247
C       -1.47849546      -0.53698959       0.54978303
C       -0.56261250       1.18764917      -0.70241956
O       -2.50742409      -1.45417877       0.39625072
H        2.57575583      -0.18132207       1.16821356
H        2.56525189       1.25268503       0.11396422
H        2.32344523      -0.37785700      -0.59074939
H       -1.61772841       0.09442337       1.42490890
H        0.03650945       2.10269351      -0.69656570
H       -1.56446884       1.61383693      -0.73121262
H       -0.41202682       0.67154620      -1.65517408
H       -2.36640074      -1.95351874      -0.41423984
15
Frame=14 idx=006421 GeodesicLength=1.0396960926108707 rxn_smarts="[C:1]([O:2][C:3](=[O:4])[C@@:5]([C:6]([H:12])([H:13])[H:14])([O:7][H:15])[H:11])([H:8])([H:9])[H:10]>>[C:1]([O:2][C:6]([H:12])([H:13])[H:14])([H:8])([H:9])[H:10].[C:3](=[O:4])=[C:5]([O:7][H:15])[H:11]"
C        2.14564507       0.26294050       0.27277653
O        0.75378114       0.41801369       0.46865878
C       -0.17955179      -1.11020823       0.51048577
O        0.30876819      -2.01030162      -0.09108789
C       -1.47364255      -0.53337473       0.54794491
C       -0.57494983       1.18236067      -0.70349339
O       -2.50643441      -1.44976956       0.40332052
H        2.57082434      -0.21161745       1.15711459
H        2.58815661       1.25375235       0.14938056
H        2.33726589      -0.35271462      -0.60919281
H       -1.60570181       0.09307248       1.42889888
H        0.00084055       2.11299048      -0.69055379
H       -1.57961003       1.60108770      -0.76546355
H       -0.40071052       0.68031336      -1.66095744
H       -2.38468087      -1.93654502      -0.41783166
15
Frame=15 idx=006421 GeodesicLength=1.1136954964833945 rxn_smarts="[C:1]([O:2][C:3](=[O:4])[C@@:5]([C:6]([H:12])([H:13])[H:14])([O:7][H:15])[H:11])([H:8])([H:9])[H:10]>>[C:1]([O:2][C:6]([H:12])([H:13])[H:14])([H:8])([H:9])[H:10].[C:3](=[O:4])=[C:5]([O:7][H:15])[H:11]"
C        2.15591156       0.26440285       0.27088222
O        0.76290382       0.42575660       0.45211857
C       -0.17807787      -1.12578010       0.53074828
O        0.30845023      -2.02437593      -0.07102515
C       -1.46836646      -0.52991991       0.54620969
C       -0.58766813       1.17703232      -0.70501383
O       -2.50529247      -1.44509426       0.41032479
H        2.56502044      -0.24133644       1.14548373
H        2.61093526       1.25335140       0.18567333
H        2.35274931      -0.32728895      -0.62646837
H       -1.59329030       0.09186431       1.43265919
H       -0.03566616       2.12262129      -0.68464421
H       -1.59423680       1.58796926      -0.79915348
H       -0.39039691       0.69014125      -1.66708016
H       -2.40297552      -1.91934369      -0.42071460
15
Frame=16 idx=006421 GeodesicLength=1.1877578046863866 rxn_smarts="[C:1]([O:2][C:3](=[O:4])[C@@:5]([C:6]([H:12])([H:13])[H:14])([O:7][H:15])[H:11])([H:8])([H:9])[H:10]>>[C:1]([O:2][C:6]([H:12])([H:13])[H:14])([H:8])([H:9])[H:10].[C:3](=[O:4])=[C:5]([O:7][H:15])[H:11]"
C        2.16632133       0.26580226       0.26916270
O        0.77213975       0.43342574       0.43393419
C       -0.17667455      -1.14131610       0.55081252
O        0.30809225      -2.03831753      -0.05129176
C       -1.46264574      -0.52661261       0.54455967
C       -0.60076082       1.17161131      -0.70705626
O       -2.50399049      -1.44014123       0.41737771
H        2.55832130      -0.27045670       1.13338357
H        2.63341276       1.25149915       0.22298952
H        2.37014441      -0.30154735      -0.64249448
H       -1.58037953       0.09082836       1.43618364
H       -0.07298104       2.13150620      -0.67888426
H       -1.60840513       1.57455759      -0.83218743
H       -0.38122210       0.70101215      -1.67365955
H       -2.42137240      -1.90185124      -0.42282976
