16
Frame=0 idx=008941 GeodesicLength=0.0 rxn_smarts="[C:1]([C@@:2]1([H:11])[C:3]([H:12])([H:13])[N:4]([C:5]([H:14])([H:15])[H:16])[C:6]1=[O:7])([H:8])([H:9])[H:10]>>[C:1]([C:2]1=[C:6]([O-:7])[N+:4](=[C:5]([H:15])[H:16])[C:3]1([H:12])[H:13])([H:8])([H:9])[H:10].[H:11][H:14]"
C        2.19719000       0.10154556       0.13108998
C        0.75215305      -0.25019703       0.14437558
C       -0.16473421      -0.83789812      -0.90145749
N       -1.20805074      -0.65686842       0.13353989
C       -2.13321272       0.26429495      -0.03317876
C       -0.18436923      -0.45434931       1.18758760
O       -0.36601361      -0.31414887       2.36613143
H        2.82316682      -0.79334869       0.06334969
H        2.46151753       0.62591497       1.04974028
H        2.44670616       0.74632322      -0.71435879
H       -0.07897121       1.19878255      -0.07858632
H       -0.34024142      -0.21879099      -1.78989470
H       -0.04041579      -1.88342758      -1.18551042
H       -0.89917687       1.48531420      -0.25399435
H       -2.66006191       0.32740898      -0.97757982
H       -2.60548582       0.65944460       0.85874618
16
Frame=1 idx=008941 GeodesicLength=0.08022744212497712 rxn_smarts="[C:1]([C@@:2]1([H:11])[C:3]([H:12])([H:13])[N:4]([C:5]([H:14])([H:15])[H:16])[C:6]1=[O:7])([H:8])([H:9])[H:10]>>[C:1]([C:2]1=[C:6]([O-:7])[N+:4](=[C:5]([H:15])[H:16])[C:3]1([H:12])[H:13])([H:8])([H:9])[H:10].[H:11][H:14]"
C        2.20432016       0.09464516       0.13037147
C        0.75199643      -0.22391121       0.13844143
C       -0.16103866      -0.83206598      -0.90125622
N       -1.20513701      -0.64979606       0.13273593
C       -2.13945746       0.26660141      -0.03254572
C       -0.18015732      -0.44946272       1.18482503
O       -0.35749793      -0.31003652       2.36444687
H        2.81082020      -0.81434921       0.07347486
H        2.47522913       0.62003611       1.04650253
H        2.47161644       0.72542275      -0.72025356
H       -0.07624439       1.22205096      -0.08229863
H       -0.33646253      -0.22301134      -1.79655226
H       -0.02862670      -1.87858950      -1.17855348
H       -0.92365583       1.50450379      -0.24414650
H       -2.66813621       0.32374345      -0.97672499
H       -2.63756832       0.62421892       0.86153323
16
Frame=2 idx=008941 GeodesicLength=0.16009944461074244 rxn_smarts="[C:1]([C@@:2]1([H:11])[C:3]([H:12])([H:13])[N:4]([C:5]([H:14])([H:15])[H:16])[C:6]1=[O:7])([H:8])([H:9])[H:10]>>[C:1]([C:2]1=[C:6]([O-:7])[N+:4](=[C:5]([H:15])[H:16])[C:3]1([H:12])[H:13])([H:8])([H:9])[H:10].[H:11][H:14]"
C        2.21097949       0.08749395       0.12957928
C        0.75191072      -0.19745151       0.13246899
C       -0.15715736      -0.82602567      -0.90095294
N       -1.20203021      -0.64243081       0.13200443
C       -2.14564523       0.26904187      -0.03158463
C       -0.17561977      -0.44426420       1.18200070
O       -0.34873136      -0.30554411       2.36267493
H        2.79761437      -0.83510401       0.08381859
H        2.48878104       0.61405189       1.04296322
H        2.49592568       0.70352465      -0.72617783
H       -0.07321443       1.24573976      -0.08610403
H       -0.33244196      -0.22720820      -1.80307938
H       -0.01687408      -1.87346901      -1.17150132
H       -0.94857005       1.52382614      -0.23359492
H       -2.67578117       0.32034728      -0.97572692
H       -2.66914569       0.58747197       0.86321182
16
Frame=3 idx=008941 GeodesicLength=0.2397547084599415 rxn_smarts="[C:1]([C@@:2]1([H:11])[C:3]([H:12])([H:13])[N:4]([C:5]([H:14])([H:15])[H:16])[C:6]1=[O:7])([H:8])([H:9])[H:10]>>[C:1]([C:2]1=[C:6]([O-:7])[N+:4](=[C:5]([H:15])[H:16])[C:3]1([H:12])[H:13])([H:8])([H:9])[H:10].[H:11][H:14]"
C        2.21713950       0.08012743       0.12871428
C        0.75191477      -0.17092550       0.12647218
C       -0.15310985      -0.81981901      -0.90053827
N       -1.19874202      -0.63477985       0.13135597
C       -2.15177658       0.27160602      -0.03027871
C       -0.17077268      -0.43877249       1.17912881
O       -0.33972620      -0.30069863       2.36083098
H        2.78360838      -0.85551315       0.09432149
H        2.50213690       0.60795742       1.03913573
H        2.51950344       0.68071950      -0.73209928
H       -0.06979444       1.26978672      -0.09000267
H       -0.32817074      -0.23140867      -1.80945727
H       -0.00521983      -1.86811772      -1.16435234
H       -0.97394022       1.54324633      -0.22232825
H       -2.68296689       0.31727038      -0.97459128
H       -2.70008354       0.54932121       0.86368863
16
Frame=4 idx=008941 GeodesicLength=0.3193207582859319 rxn_smarts="[C:1]([C@@:2]1([H:11])[C:3]([H:12])([H:13])[N:4]([C:5]([H:14])([H:15])[H:16])[C:6]1=[O:7])([H:8])([H:9])[H:10]>>[C:1]([C:2]1=[C:6]([O-:7])[N+:4](=[C:5]([H:15])[H:16])[C:3]1([H:12])[H:13])([H:8])([H:9])[H:10].[H:11][H:14]"
C        2.22278153       0.07258352       0.12777225
C        0.75202515      -0.14444635       0.12046377
C       -0.14892196      -0.81349096      -0.90000319
N       -1.19528809      -0.62685379       0.13080365
C       -2.15785746       0.27428173      -0.02861095
C       -0.16563754      -0.43301003       1.17622649
O       -0.33049813      -0.29551809       2.35893256
H        2.76887406      -0.87548288       0.10492782
H        2.51526565       0.60175393       1.03503068
H        2.54223563       0.65710712      -0.73799337
H       -0.06588780       1.29412758      -0.09399385
H       -0.32364782      -0.23563991      -1.81566465
H        0.00627102      -1.86259101      -1.15710564
H       -0.99979817       1.56272767      -0.21031731
H       -2.68966066       0.31456883      -0.97332591
H       -2.73025540       0.50988262       0.86285765
16
Frame=5 idx=008941 GeodesicLength=0.3988377795021492 rxn_smarts="[C:1]([C@@:2]1([H:11])[C:3]([H:12])([H:13])[N:4]([C:5]([H:14])([H:15])[H:16])[C:6]1=[O:7])([H:8])([H:9])[H:10]>>[C:1]([C:2]1=[C:6]([O-:7])[N+:4](=[C:5]([H:15])[H:16])[C:3]1([H:12])[H:13])([H:8])([H:9])[H:10].[H:11][H:14]"
C        2.22789573       0.06489963       0.12675188
C        0.75225553      -0.11811249       0.11445776
C       -0.14461863      -0.80708642      -0.89933920
N       -1.19168526      -0.61866906       0.13035803
C       -2.16390343       0.27704552      -0.02656880
C       -0.16023912      -0.42700233       1.17331074
O       -0.32106443      -0.29002517       2.35699646
H        2.75349094      -0.89493340       0.11557543
H        2.52814007       0.59544212       1.03066281
H        2.56402011       0.63279354      -0.74383920
H       -0.06141443       1.31869749      -0.09808418
H       -0.31887437      -0.23993198      -1.82168453
H        0.01754554      -1.85694409      -1.14975617
H       -1.02617335       1.58223527      -0.19752198
H       -2.69583706       0.31228737      -0.97194895
H       -2.75953781       0.46930402       0.86062990
16
Frame=6 idx=008941 GeodesicLength=0.47841576559095506 rxn_smarts="[C:1]([C@@:2]1([H:11])[C:3]([H:12])([H:13])[N:4]([C:5]([H:14])([H:15])[H:16])[C:6]1=[O:7])([H:8])([H:9])[H:10]>>[C:1]([C:2]1=[C:6]([O-:7])[N+:4](=[C:5]([H:15])[H:16])[C:3]1([H:12])[H:13])([H:8])([H:9])[H:10].[H:11][H:14]"
C        2.23248443       0.05710886       0.12564874
C        0.75261793      -0.09202516       0.10846382
C       -0.14022780      -0.80064838      -0.89854086
N       -1.18795183      -0.61023524       0.13002872
C       -2.16993110       0.27987278      -0.02414613
C       -0.15460575      -0.42076529       1.17039914
O       -0.31144512      -0.28421950       2.35504027
H        2.73754685      -0.91379648       0.12621377
H        2.54074117       0.58902534       1.02604245
H        2.58478379       0.60787512      -0.74962475
H       -0.05626783       1.34343816      -0.10228745
H       -0.31385564      -0.24431036      -1.82749894
H        0.02854798      -1.85123132      -1.14230039
H       -1.05313570       1.60173122      -0.18387733
H       -2.70147325       0.31048048      -0.97047122
H       -2.78782812       0.42769977       0.85691017
16
Frame=7 idx=008941 GeodesicLength=0.5581134652400443 rxn_smarts="[C:1]([C@@:2]1([H:11])[C:3]([H:12])([H:13])[N:4]([C:5]([H:14])([H:15])[H:16])[C:6]1=[O:7])([H:8])([H:9])[H:10]>>[C:1]([C:2]1=[C:6]([O-:7])[N+:4](=[C:5]([H:15])[H:16])[C:3]1([H:12])[H:13])([H:8])([H:9])[H:10].[H:11][H:14]"
C        2.23655534       0.04924253       0.12445947
C        0.75312579      -0.06626536       0.10249038
C       -0.13577511      -0.79421747      -0.89760260
N       -1.18410299      -0.60156577       0.12982470
C       -2.17596597       0.28272282      -0.02133153
C       -0.14876171      -0.41431456       1.16750569
O       -0.30165234      -0.27810198       2.35307658
H        2.72112696      -0.93202161       0.13678129
H        2.55305635       0.58249377       1.02118712
H        2.60447402       0.58245712      -0.75532366
H       -0.05035307       1.36829231      -0.10663565
H       -0.30860104      -0.24880257      -1.83309639
H        0.03923435      -1.84550387      -1.13472933
H       -1.08076794       1.62118199      -0.16930426
H       -2.70655932       0.30917880      -0.96891795
H       -2.81503331       0.38522386       0.85161616
16
Frame=8 idx=008941 GeodesicLength=0.6380193408342916 rxn_smarts="[C:1]([C@@:2]1([H:11])[C:3]([H:12])([H:13])[N:4]([C:5]([H:14])([H:15])[H:16])[C:6]1=[O:7])([H:8])([H:9])[H:10]>>[C:1]([C:2]1=[C:6]([O-:7])[N+:4](=[C:5]([H:15])[H:16])[C:3]1([H:12])[H:13])([H:8])([H:9])[H:10].[H:11][H:14]"
C        2.24013007       0.04132003       0.12318083
C        0.75378753      -0.04090175       0.09654033
C       -0.13128556      -0.78782419      -0.89652293
N       -1.18015408      -0.59267238       0.12975362
C       -2.18204380       0.28554480      -0.01812421
C       -0.14273568      -0.40765223       1.16464518
O       -0.29170663      -0.27164306       2.35111697
H        2.70431676      -0.94958197       0.14724426
H        2.56508739       0.57584824       1.01610695
H        2.62306394       0.55661078      -0.76094012
H       -0.04356369       1.39321647      -0.11116078
H       -0.30312392      -0.25342385      -1.83846310
H        0.04956945      -1.83980076      -1.12704143
H       -1.10919891       1.64054497      -0.15368496
H       -2.71108021       0.30841939      -0.96730775
H       -2.84106266       0.34199549       0.84465713
16
Frame=9 idx=008941 GeodesicLength=0.7181700458292336 rxn_smarts="[C:1]([C@@:2]1([H:11])[C:3]([H:12])([H:13])[N:4]([C:5]([H:14])([H:15])[H:16])[C:6]1=[O:7])([H:8])([H:9])[H:10]>>[C:1]([C:2]1=[C:6]([O-:7])[N+:4](=[C:5]([H:15])[H:16])[C:3]1([H:12])[H:13])([H:8])([H:9])[H:10].[H:11][H:14]"
C        2.24325553       0.03332406       0.12182387
C        0.75460999      -0.01596483       0.09062101
C       -0.12676582      -0.78145879      -0.89532851
N       -1.17610802      -0.58353187       0.12977356
C       -2.18822943       0.28828118      -0.01460593
C       -0.13656797      -0.40071454       1.16179579
O       -0.28165877      -0.26472110       2.34912906
H        2.68719360      -0.96649761       0.15758642
H        2.57685055       0.56906539       1.01082068
H        2.64066845       0.53033450      -0.76642147
H       -0.03577092       1.41818101      -0.11596583
H       -0.29741711      -0.25815234      -1.84362674
H        0.05953785      -1.83411591      -1.11925548
H       -1.13852982       1.65980057      -0.13693638
H       -2.71510032       0.30818509      -0.96566411
H       -2.86596778       0.29798519       0.83625404
16
Frame=10 idx=008941 GeodesicLength=0.7984972977584759 rxn_smarts="[C:1]([C@@:2]1([H:11])[C:3]([H:12])([H:13])[N:4]([C:5]([H:14])([H:15])[H:16])[C:6]1=[O:7])([H:8])([H:9])[H:10]>>[C:1]([C:2]1=[C:6]([O-:7])[N+:4](=[C:5]([H:15])[H:16])[C:3]1([H:12])[H:13])([H:8])([H:9])[H:10].[H:11][H:14]"
C        2.24593996       0.02530623       0.12036738
C        0.75560576       0.00847655       0.08471561
C       -0.12225163      -0.77519114      -0.89399498
N       -1.17198677      -0.57417975       0.12992828
C       -2.19451757       0.29089139      -0.01071484
C       -0.13026896      -0.39355922       1.15899642
O       -0.27149503      -0.25736640       2.34715397
H        2.66982927      -0.98273247       0.16777138
H        2.58833874       0.56216548       1.00532646
H        2.65717649       0.50376385      -0.77181723
H       -0.02689394       1.44314883      -0.12106792
H       -0.29151457      -0.26305790      -1.84855404
H        0.06910324      -1.82853630      -1.11133098
H       -1.16889993       1.67888369      -0.11884990
H       -2.71854411       0.30858346      -0.96400493
H       -2.88962095       0.25340370       0.82607534
16
Frame=11 idx=008941 GeodesicLength=0.8789779477190554 rxn_smarts="[C:1]([C@@:2]1([H:11])[C:3]([H:12])([H:13])[N:4]([C:5]([H:14])([H:15])[H:16])[C:6]1=[O:7])([H:8])([H:9])[H:10]>>[C:1]([C:2]1=[C:6]([O-:7])[N+:4](=[C:5]([H:15])[H:16])[C:3]1([H:12])[H:13])([H:8])([H:9])[H:10].[H:11][H:14]"
C        2.24821917       0.01726893       0.11880878
C        0.75678719       0.03239486       0.07881235
C       -0.11775521      -0.76904033      -0.89252730
N       -1.16779565      -0.56461188       0.13021049
C       -2.20093589       0.29332818      -0.00646987
C       -0.12385888      -0.38616679       1.15624924
O       -0.26123170      -0.24950893       2.34518915
H        2.65228431      -0.99830693       0.17779278
H        2.59956519       0.55514793       0.99962577
H        2.67262397       0.47693266      -0.77713054
H       -0.01682644       1.46810001      -0.12656220
H       -0.28542571      -0.26816116      -1.85325097
H        0.07825246      -1.82308971      -1.10325352
H       -1.20046617       1.69775648      -0.09921693
H       -2.72142330       0.30964688      -0.96236252
H       -2.91201335       0.20830979       0.81408527
16
Frame=12 idx=008941 GeodesicLength=0.9596081791015855 rxn_smarts="[C:1]([C@@:2]1([H:11])[C:3]([H:12])([H:13])[N:4]([C:5]([H:14])([H:15])[H:16])[C:6]1=[O:7])([H:8])([H:9])[H:10]>>[C:1]([C:2]1=[C:6]([O-:7])[N+:4](=[C:5]([H:15])[H:16])[C:3]1([H:12])[H:13])([H:8])([H:9])[H:10].[H:11][H:14]"
C        2.25012979       0.00920984       0.11714459
C        0.75816601       0.05577126       0.07289109
C       -0.11329025      -0.76302431      -0.89093201
N       -1.16354007      -0.55481786       0.13061208
C       -2.20751502       0.29553780      -0.00189856
C       -0.11735765      -0.37850572       1.15355267
O       -0.25088785      -0.24105036       2.34322275
H        2.63461144      -1.01324911       0.18765722
H        2.61054836       0.54800405       0.99372159
H        2.68705366       0.44986501      -0.78236788
H       -0.00543878       1.49302332      -0.13255849
H       -0.27916355      -0.27348471      -1.85772496
H        0.08697216      -1.81780331      -1.09500721
H       -1.23342145       1.71636789      -0.07778903
H       -2.72374096       0.31142304      -0.96076062
H       -2.93312582       0.16273319       0.80023677
16
Frame=13 idx=008941 GeodesicLength=1.0402344657692455 rxn_smarts="[C:1]([C@@:2]1([H:11])[C:3]([H:12])([H:13])[N:4]([C:5]([H:14])([H:15])[H:16])[C:6]1=[O:7])([H:8])([H:9])[H:10]>>[C:1]([C:2]1=[C:6]([O-:7])[N+:4](=[C:5]([H:15])[H:16])[C:3]1([H:12])[H:13])([H:8])([H:9])[H:10].[H:11][H:14]"
C        2.25170506       0.00112823       0.11537289
C        0.75974933       0.07859794       0.06693214
C       -0.10886715      -0.75716321      -0.88921320
N       -1.15922587      -0.54479198       0.13112338
C       -2.21428253       0.29747330       0.00297313
C       -0.11078251      -0.37055477       1.15090492
O       -0.24048221      -0.23190675       2.34124509
H        2.61685427      -1.02758345       0.19736964
H        2.62130113       0.54073800       0.98761186
H        2.70050408       0.42257972      -0.78753844
H        0.00736192       1.51790840      -0.13917532
H       -0.27273931      -0.27906085      -1.86198514
H        0.09525782      -1.81270566      -1.08656810
H       -1.26791173       1.73466107      -0.05429872
H       -2.72550287       0.31395831      -0.95923095
H       -2.95293944       0.11672170       0.78447683
16
Frame=14 idx=008941 GeodesicLength=1.120782851774491 rxn_smarts="[C:1]([C@@:2]1([H:11])[C:3]([H:12])([H:13])[N:4]([C:5]([H:14])([H:15])[H:16])[C:6]1=[O:7])([H:8])([H:9])[H:10]>>[C:1]([C:2]1=[C:6]([O-:7])[N+:4](=[C:5]([H:15])[H:16])[C:3]1([H:12])[H:13])([H:8])([H:9])[H:10].[H:11][H:14]"
C        2.25297941      -0.00698534       0.11348990
C        0.76154735       0.10087670       0.06090663
C       -0.10449485      -0.75146959      -0.88737737
N       -1.15485475      -0.53451542       0.13173272
C       -2.22127230       0.29907318       0.00811694
C       -0.10414734      -0.36226856       1.14829875
O       -0.23003145      -0.22195389       2.33923693
H        2.59904449      -1.04134496       0.20695106
H        2.63184479       0.53334348       0.98129096
H        2.71303438       0.39507152      -0.79264925
H        0.02170463       1.54275290      -0.14655680
H       -0.26616763      -0.28491745      -1.86604189
H        0.10310313      -1.80781750      -1.07791218
H       -1.30414619       1.75254753      -0.02841927
H       -2.72670775       0.31731563      -0.95779392
H       -2.97143592       0.07029178       0.76672679
16
Frame=15 idx=008941 GeodesicLength=1.201132089799157 rxn_smarts="[C:1]([C@@:2]1([H:11])[C:3]([H:12])([H:13])[N:4]([C:5]([H:14])([H:15])[H:16])[C:6]1=[O:7])([H:8])([H:9])[H:10]>>[C:1]([C:2]1=[C:6]([O-:7])[N+:4](=[C:5]([H:15])[H:16])[C:3]1([H:12])[H:13])([H:8])([H:9])[H:10].[H:11][H:14]"
C        2.25398503      -0.01514285       0.11149538
C        0.76357059       0.12261824       0.05478225
C       -0.10017736      -0.74595545      -0.88543018
N       -1.15042567      -0.52397063       0.13242533
C       -2.22852016       0.30027087       0.01350204
C       -0.09746328      -0.35360077       1.14572472
O       -0.21955458      -0.21105749       2.33717718
H        2.58120710      -1.05456808       0.21642008
H        2.64219852       0.52581870       0.97475324
H        2.72469955       0.36731901      -0.79770784
H        0.03770617       1.56755322      -0.15486533
H       -0.25946046      -0.29108708      -1.86990693
H        0.11051026      -1.80315699      -1.06901129
H       -1.34233250       1.76992296       0.00021793
H       -2.72735305       0.32156122      -0.95647120
H       -2.98859015       0.02347510       0.74689462
16
Frame=16 idx=008941 GeodesicLength=1.28116571726201 rxn_smarts="[C:1]([C@@:2]1([H:11])[C:3]([H:12])([H:13])[N:4]([C:5]([H:14])([H:15])[H:16])[C:6]1=[O:7])([H:8])([H:9])[H:10]>>[C:1]([C:2]1=[C:6]([O-:7])[N+:4](=[C:5]([H:15])[H:16])[C:3]1([H:12])[H:13])([H:8])([H:9])[H:10].[H:11][H:14]"
C        2.25475249      -0.02335861       0.10938038
C        0.76583131       0.14383795       0.04851689
C       -0.09591979      -0.74063079      -0.88337747
N       -1.14593615      -0.51312584       0.13318572
C       -2.23606051       0.30100943       0.01910457
C       -0.09073835      -0.34449129       1.14317276
O       -0.20906926      -0.19905845       2.33504669
H        2.56335333      -1.06728740       0.22582695
H        2.65238692       0.51817879       0.96797522
H        2.73556443       0.33926328      -0.80272899
H        0.05549241       1.59232011      -0.16428566
H       -0.25263548      -0.29760891      -1.87359269
H        0.11747522      -1.79874244      -1.05983028
H       -1.38269456       1.78664304       0.03204724
H       -2.72742450       0.32680467      -0.95527470
H       -3.00437752      -0.02375355       0.72483339
