12
Frame=0 idx=001651 GeodesicLength=0.0 rxn_smarts="[O:1]([N:2]=[C:3]1[C:4]([H:8])([H:9])[N:5]([H:10])[C:6]1([H:11])[H:12])[H:7]>>[H:8][H:11].[O:1]([N-:2][C:3]1=[C:4]([H:9])[N:5]([H:10])[C+:6]1[H:12])[H:7]"
O        2.16205550      -0.67593288       1.18940645
N        1.52729729       0.47585573       0.76961253
C        0.40396454       0.23151301       0.26272119
C       -0.68614002       1.10464712      -0.27529145
N       -1.52417725       0.04808752      -0.03380809
C       -0.53015820      -0.90252944       0.00725395
H        2.98581834      -0.34962682       1.55781141
H       -0.19374716       0.37972971      -1.75476547
H       -0.92610086       2.15133459      -0.17766137
H       -2.49028595      -0.06393173      -0.29898036
H       -0.11099599      -0.49329356      -1.63973061
H       -0.61753026      -1.90585330       0.39343186
12
Frame=1 idx=001651 GeodesicLength=0.06270617527348223 rxn_smarts="[O:1]([N:2]=[C:3]1[C:4]([H:8])([H:9])[N:5]([H:10])[C:6]1([H:11])[H:12])[H:7]>>[H:8][H:11].[O:1]([N-:2][C:3]1=[C:4]([H:9])[N:5]([H:10])[C+:6]1[H:12])[H:7]"
O        2.16226447      -0.67551063       1.18642668
N        1.52394586       0.47889277       0.77928925
C        0.39797222       0.23606375       0.27745647
C       -0.68521724       1.10608004      -0.28232928
N       -1.52794049       0.05100680      -0.02819835
C       -0.53015835      -0.90098597       0.00921594
H        2.99139561      -0.35205769       1.54518074
H       -0.19400229       0.38248926      -1.75576406
H       -0.92467677       2.15204745      -0.17235724
H       -2.48805445      -0.06390384      -0.31319965
H       -0.10999319      -0.50824055      -1.63741053
H       -0.61553538      -1.90588139       0.39169003
12
Frame=2 idx=001651 GeodesicLength=0.12540903477129023 rxn_smarts="[O:1]([N:2]=[C:3]1[C:4]([H:8])([H:9])[N:5]([H:10])[C:6]1([H:11])[H:12])[H:7]>>[H:8][H:11].[O:1]([N-:2][C:3]1=[C:4]([H:9])[N:5]([H:10])[C+:6]1[H:12])[H:7]"
O        2.16238800      -0.67508801       1.18336625
N        1.52071083       0.48177550       0.78857493
C        0.39195010       0.24054641       0.29211853
C       -0.68412908       1.10739902      -0.28910019
N       -1.53163759       0.05388025      -0.02276236
C       -0.53003853      -0.89946550       0.01098254
H        2.99639235      -0.35429740       1.53310861
H       -0.19436784       0.38581464      -1.75693333
H       -0.92310648       2.15257703      -0.16737868
H       -2.48563461      -0.06384142      -0.32658976
H       -0.10912309      -0.52341100      -1.63521312
H       -0.61340406      -1.90588950       0.38982657
12
Frame=3 idx=001651 GeodesicLength=0.1881156451958209 rxn_smarts="[O:1]([N:2]=[C:3]1[C:4]([H:8])([H:9])[N:5]([H:10])[C:6]1([H:11])[H:12])[H:7]>>[H:8][H:11].[O:1]([N-:2][C:3]1=[C:4]([H:9])[N:5]([H:10])[C+:6]1[H:12])[H:7]"
O        2.16256726      -0.67468376       1.17984274
N        1.51728232       0.48457229       0.79808487
C        0.38572741       0.24499584       0.30702217
C       -0.68291264       1.10861783      -0.29559039
N       -1.53537187       0.05672373      -0.01763185
C       -0.52990287      -0.89794505       0.01271824
H        3.00112454      -0.35640477       1.52090584
H       -0.19453129       0.38965582      -1.75811299
H       -0.92147454       2.15295250      -0.16276816
H       -2.48307196      -0.06374650      -0.33962392
H       -0.10809969      -0.53890648      -1.63289711
H       -0.61133667      -1.90583145       0.38805057
12
Frame=4 idx=001651 GeodesicLength=0.2508175835323192 rxn_smarts="[O:1]([N:2]=[C:3]1[C:4]([H:8])([H:9])[N:5]([H:10])[C:6]1([H:11])[H:12])[H:7]>>[H:8][H:11].[O:1]([N-:2][C:3]1=[C:4]([H:9])[N:5]([H:10])[C+:6]1[H:12])[H:7]"
O        2.16252605      -0.67426096       1.17689208
N        1.51509596       0.48703380       0.80499787
C        0.38018621       0.24924472       0.32061523
C       -0.68140417       1.10972183      -0.30189587
N       -1.53864901       0.05947183      -0.01208607
C       -0.52924806      -0.89650963       0.01375460
H        3.00411570      -0.35814869       1.51243835
H       -0.19609944       0.39430097      -1.76012036
H       -0.91944902       2.15314235      -0.15808406
H       -2.48027673      -0.06360061      -0.35056217
H       -0.10839143      -0.55453512      -1.63155379
H       -0.60840606      -1.90586049       0.38560419
12
Frame=5 idx=001651 GeodesicLength=0.31351139550763363 rxn_smarts="[O:1]([N:2]=[C:3]1[C:4]([H:8])([H:9])[N:5]([H:10])[C:6]1([H:11])[H:12])[H:7]>>[H:8][H:11].[O:1]([N-:2][C:3]1=[C:4]([H:9])[N:5]([H:10])[C+:6]1[H:12])[H:7]"
O        2.16273030      -0.67386996       1.17284870
N        1.51194518       0.48954306       0.81361845
C        0.37401365       0.25353096       0.33520985
C       -0.67984361       1.11075064      -0.30788277
N       -1.54220376       0.06222723      -0.00719129
C       -0.52883629      -0.89502722       0.01513307
H        3.00766937      -0.35987267       1.50190648
H       -0.19668226       0.39935746      -1.76172873
H       -0.91753438       2.15322919      -0.15387742
H       -2.47739534      -0.06342631      -0.36223959
H       -0.10783015      -0.57071313      -1.62950110
H       -0.60603270      -1.90572925       0.38370435
12
Frame=6 idx=001651 GeodesicLength=0.37621072200869377 rxn_smarts="[O:1]([N:2]=[C:3]1[C:4]([H:8])([H:9])[N:5]([H:10])[C:6]1([H:11])[H:12])[H:7]>>[H:8][H:11].[O:1]([N-:2][C:3]1=[C:4]([H:9])[N:5]([H:10])[C+:6]1[H:12])[H:7]"
O        2.16310303      -0.67353041       1.16853430
N        1.50992891       0.49178052       0.81987665
C        0.36851008       0.25764094       0.34856536
C       -0.67803530       1.11168928      -0.31370820
N       -1.54534172       0.06490252      -0.00188527
C       -0.52794579      -0.89360580       0.01590299
H        3.00948487      -0.36125987       1.49554375
H       -0.19864850       0.40522030      -1.76414427
H       -0.91527247       2.15316721      -0.14958067
H       -2.47435166      -0.06319843      -0.37205765
H       -0.10855161      -0.58716833      -1.62833001
H       -0.60287984      -1.90563793       0.38128302
12
Frame=7 idx=001651 GeodesicLength=0.4389036259771096 rxn_smarts="[O:1]([N:2]=[C:3]1[C:4]([H:8])([H:9])[N:5]([H:10])[C:6]1([H:11])[H:12])[H:7]>>[H:8][H:11].[O:1]([N-:2][C:3]1=[C:4]([H:9])[N:5]([H:10])[C+:6]1[H:12])[H:7]"
O        2.16364344      -0.67321063       1.16396592
N        1.50888259       0.49380071       0.82408154
C        0.36360040       0.26161258       0.36084764
C       -0.67603246       1.11255627      -0.31938198
N       -1.54810860       0.06749858       0.00375288
C       -0.52662371      -0.89222484       0.01614179
H        3.00985034      -0.36243344       1.49285074
H       -0.20184229       0.41189799      -1.76727804
H       -0.91273651       2.15297332      -0.14521189
H       -2.47117760      -0.06294153      -0.38029770
H       -0.11041464      -0.60397536      -1.62791060
H       -0.59904096      -1.90555365       0.37843970
12
Frame=8 idx=001651 GeodesicLength=0.5016024882187842 rxn_smarts="[O:1]([N:2]=[C:3]1[C:4]([H:8])([H:9])[N:5]([H:10])[C:6]1([H:11])[H:12])[H:7]>>[H:8][H:11].[O:1]([N-:2][C:3]1=[C:4]([H:9])[N:5]([H:10])[C+:6]1[H:12])[H:7]"
O        2.16394583      -0.67282605       1.15959086
N        1.50730284       0.49583469       0.82918246
C        0.35837952       0.26557132       0.37359869
C       -0.67394513       1.11336765      -0.32478764
N       -1.55098750       0.07006101       0.00894399
C       -0.52535824      -0.89082046       0.01649082
H        3.01072906      -0.36365344       1.48850711
H       -0.20458852       0.41920440      -1.77031583
H       -0.91026039       2.15268612      -0.14106353
H       -2.46789840      -0.06267702      -0.38892807
H       -0.11187748      -0.62139819      -1.62712735
H       -0.59544157      -1.90535002       0.37590849
12
Frame=9 idx=001651 GeodesicLength=0.5643011034588781 rxn_smarts="[O:1]([N:2]=[C:3]1[C:4]([H:8])([H:9])[N:5]([H:10])[C:6]1([H:11])[H:12])[H:7]>>[H:8][H:11].[O:1]([N-:2][C:3]1=[C:4]([H:9])[N:5]([H:10])[C+:6]1[H:12])[H:7]"
O        2.16338351      -0.67229359       1.15645653
N        1.50405705       0.49799453       0.83736692
C        0.35215235       0.26956507       0.38792668
C       -0.67178789       1.11412056      -0.32981135
N       -1.55432538       0.07261878       0.01308634
C       -0.52450479      -0.88936769       0.01739054
H        3.01370280      -0.36500176       1.47792577
H       -0.20558950       0.42704953      -1.77265374
H       -0.90805134       2.15232218      -0.13729117
H       -2.46444868      -0.06241830      -0.39942036
H       -0.11181531      -0.63962837      -1.62516795
H       -0.59277282      -1.90496094       0.37419180
12
Frame=10 idx=001651 GeodesicLength=0.6270092894681246 rxn_smarts="[O:1]([N:2]=[C:3]1[C:4]([H:8])([H:9])[N:5]([H:10])[C:6]1([H:11])[H:12])[H:7]>>[H:8][H:11].[O:1]([N-:2][C:3]1=[C:4]([H:9])[N:5]([H:10])[C+:6]1[H:12])[H:7]"
O        2.16261970      -0.67171132       1.15354071
N        1.50054755       0.50008769       0.84593808
C        0.34578338       0.27347974       0.40238203
C       -0.66946917       1.11482083      -0.33457230
N       -1.55767876       0.07513724       0.01691482
C       -0.52361444      -0.88791953       0.01828105
H        3.01675812      -0.36623171       1.46650063
H       -0.20644640       0.43566516      -1.77507035
H       -0.90581006       2.15186622      -0.13356019
H       -2.46082956      -0.06212923      -0.41003055
H       -0.11166993      -0.65858240      -1.62302166
H       -0.59019042      -1.90448268       0.37269770
12
Frame=11 idx=001651 GeodesicLength=0.6897216852784347 rxn_smarts="[O:1]([N:2]=[C:3]1[C:4]([H:8])([H:9])[N:5]([H:10])[C:6]1([H:11])[H:12])[H:7]>>[H:8][H:11].[O:1]([N-:2][C:3]1=[C:4]([H:9])[N:5]([H:10])[C+:6]1[H:12])[H:7]"
O        2.16170610      -0.67108913       1.15081136
N        1.49695091       0.50208996       0.85454810
C        0.33939550       0.27729686       0.41675543
C       -0.66697725       1.11547604      -0.33909025
N       -1.56098243       0.07760642       0.02051826
C       -0.52262394      -0.88648302       0.01908465
H        3.01966635      -0.36731430       1.45484998
H       -0.20738070       0.44514480      -1.77767592
H       -0.90350316       2.15131706      -0.12979527
H       -2.45702847      -0.06180947      -0.42057036
H       -0.11163626      -0.67831267      -1.62080013
H       -0.58758664      -1.90392253       0.37136414
12
Frame=12 idx=001651 GeodesicLength=0.75244125285125 rxn_smarts="[O:1]([N:2]=[C:3]1[C:4]([H:8])([H:9])[N:5]([H:10])[C:6]1([H:11])[H:12])[H:7]>>[H:8][H:11].[O:1]([N-:2][C:3]1=[C:4]([H:9])[N:5]([H:10])[C+:6]1[H:12])[H:7]"
O        2.16065374      -0.67043166       1.14829491
N        1.49332339       0.50399799       0.86309974
C        0.33303410       0.28100980       0.43097449
C       -0.66431366       1.11609625      -0.34337279
N       -1.56421801       0.08002145       0.02391419
C       -0.52151186      -0.88506086       0.01977536
H        3.02238301      -0.36824600       1.44312554
H       -0.20846161       0.45557390      -1.78051181
H       -0.90113225       2.15067953      -0.12594895
H       -2.45304116      -0.06146361      -0.43101884
H       -0.11178051      -0.69889975      -1.61852495
H       -0.58493518      -1.90327703       0.37019311
12
Frame=13 idx=001651 GeodesicLength=0.8151646660548826 rxn_smarts="[O:1]([N:2]=[C:3]1[C:4]([H:8])([H:9])[N:5]([H:10])[C:6]1([H:11])[H:12])[H:7]>>[H:8][H:11].[O:1]([N-:2][C:3]1=[C:4]([H:9])[N:5]([H:10])[C+:6]1[H:12])[H:7]"
O        2.15938209      -0.66973053       1.14618569
N        1.48954991       0.50582718       0.87181327
C        0.32663460       0.28462034       0.44513020
C       -0.66148330       1.11669116      -0.34740806
N       -1.56741320       0.08238085       0.02702645
C       -0.52030600      -0.88365128       0.02039205
H        3.02507514      -0.36904464       1.43077827
H       -0.20956537       0.46702947      -1.78352359
H       -0.89872977       2.14995838      -0.12200361
H       -2.44884595      -0.06109674      -0.44156288
H       -0.11199047      -0.72045258      -1.61608827
H       -0.58230767      -1.90253160       0.36926049
12
Frame=14 idx=001651 GeodesicLength=0.8778867358627774 rxn_smarts="[O:1]([N:2]=[C:3]1[C:4]([H:8])([H:9])[N:5]([H:10])[C:6]1([H:11])[H:12])[H:7]>>[H:8][H:11].[O:1]([N-:2][C:3]1=[C:4]([H:9])[N:5]([H:10])[C+:6]1[H:12])[H:7]"
O        2.15814655      -0.66904238       1.14418190
N        1.48635545       0.50752296       0.87928061
C        0.32066855       0.28810671       0.45848611
C       -0.65850849       1.11728319      -0.35128784
N       -1.57034627       0.08464748       0.03021425
C       -0.51876971      -0.88226563       0.02062774
H        3.02698216      -0.36971024       1.42050926
H       -0.21155575       0.47972553      -1.78711763
H       -0.89621395       2.14914861      -0.11780990
H       -2.44449119      -0.06073070      -0.45136317
H       -0.11300179      -0.74297516      -1.61398849
H       -0.57926556      -1.90171037       0.36826715
12
Frame=15 idx=001651 GeodesicLength=0.9406218610947319 rxn_smarts="[O:1]([N:2]=[C:3]1[C:4]([H:8])([H:9])[N:5]([H:10])[C:6]1([H:11])[H:12])[H:7]>>[H:8][H:11].[O:1]([N-:2][C:3]1=[C:4]([H:9])[N:5]([H:10])[C+:6]1[H:12])[H:7]"
O        2.15652756      -0.66829230       1.14297735
N        1.48279568       0.50917158       0.88736688
C        0.31453598       0.29150276       0.47198955
C       -0.65537695       1.11787396      -0.35489342
N       -1.57330822       0.08685162       0.03295349
C       -0.51719846      -0.88088698       0.02087422
H        3.02919760      -0.37029044       1.40845485
H       -0.21330131       0.49364382      -1.79077581
H       -0.89374679       2.14826280      -0.11347879
H       -2.43988900      -0.06036213      -0.46166652
H       -0.11383104      -0.76672085      -1.61148695
H       -0.57640505      -1.90075383       0.36768516
12
Frame=16 idx=001651 GeodesicLength=1.0033611739947736 rxn_smarts="[O:1]([N:2]=[C:3]1[C:4]([H:8])([H:9])[N:5]([H:10])[C:6]1([H:11])[H:12])[H:7]>>[H:8][H:11].[O:1]([N-:2][C:3]1=[C:4]([H:9])[N:5]([H:10])[C+:6]1[H:12])[H:7]"
O        2.15472876      -0.66753363       1.14237460
N        1.47948428       0.51074492       0.89486112
C        0.30863639       0.29479910       0.48501181
C       -0.65212202       1.11848961      -0.35830516
N       -1.57610921       0.08895576       0.03553622
C       -0.51538306      -0.87952102       0.02086456
H        3.03110683      -0.37082420       1.39687173
H       -0.21554695       0.50901835      -1.79484050
H       -0.89127854       2.14729832      -0.10887960
H       -2.43507617      -0.06002057      -0.47177978
H       -0.11509558      -0.79173471      -1.60898882
H       -0.57334474      -1.89967194       0.36727382
