14
Frame=0 idx=002049 GeodesicLength=0.0 rxn_smarts="[C:1]1([H:7])([H:8])[C:2]([H:9])([H:10])[O:3][C:4]([H:11])([H:12])[O:5][C:6]1([H:13])[H:14]>>[C:1]1([H:8])=[C:2]([H:10])[O:3][C:4]([H:11])([H:12])[O:5][C:6]1([H:13])[H:14].[H:7][H:9]"
C        0.73846509       0.51526606      -0.28125256
C        0.84893055      -0.73945582       0.42076517
O       -0.28695918      -1.42554193       0.68117642
C       -1.41151811      -0.83372724       0.04377081
O       -1.57479196       0.46853402       0.48127418
C       -0.50219900       1.33224977       0.06625233
H        2.19056820       0.22951047      -0.29925946
H        0.92206385       0.51029739      -1.34559329
H        2.22733975      -0.76723942      -0.39675679
H        1.55719991      -0.93220351       1.21039303
H       -2.28153913      -1.40798365       0.35135511
H       -1.27076083      -0.88720280      -1.04508506
H       -0.32715196       2.00861271       0.90464541
H       -0.82964714       1.92888397      -0.79168532
14
Frame=1 idx=002049 GeodesicLength=0.06424462073832275 rxn_smarts="[C:1]1([H:7])([H:8])[C:2]([H:9])([H:10])[O:3][C:4]([H:11])([H:12])[O:5][C:6]1([H:13])[H:14]>>[C:1]1([H:8])=[C:2]([H:10])[O:3][C:4]([H:11])([H:12])[O:5][C:6]1([H:13])[H:14].[H:7][H:9]"
C        0.74210025       0.51690863      -0.27562054
C        0.84766045      -0.74708813       0.40838411
O       -0.28980421      -1.43586380       0.66382891
C       -1.41846221      -0.83232618       0.04821336
O       -1.56885898       0.46756704       0.49878777
C       -0.50312672       1.32775769       0.06432348
H        2.20904357       0.24664849      -0.28778912
H        0.93461779       0.52518522      -1.33928324
H        2.24741557      -0.76727431      -0.39092915
H        1.54790251      -0.94599777       1.20483848
H       -2.28795679      -1.40345564       0.36334772
H       -1.29230761      -0.87969764      -1.04290538
H       -0.32765979       2.02187962       0.88783653
H       -0.84056384       1.90575677      -0.80303293
14
Frame=2 idx=002049 GeodesicLength=0.128427346428928 rxn_smarts="[C:1]1([H:7])([H:8])[C:2]([H:9])([H:10])[O:3][C:4]([H:11])([H:12])[O:5][C:6]1([H:13])[H:14]>>[C:1]1([H:8])=[C:2]([H:10])[O:3][C:4]([H:11])([H:12])[O:5][C:6]1([H:13])[H:14].[H:7][H:9]"
C        0.74577760       0.51860594      -0.26990260
C        0.84635695      -0.75465522       0.39553550
O       -0.29281541      -1.44580859       0.64625471
C       -1.42540575      -0.83089257       0.05279927
O       -1.56271402       0.46661857       0.51584601
C       -0.50405040       1.32325329       0.06228439
H        2.22756202       0.26408459      -0.27568322
H        0.94738885       0.54044718      -1.33261323
H        2.26739116      -0.76765842      -0.38501763
H        1.53858370      -0.96006434       1.19855421
H       -2.29412872      -1.39890744       0.37590619
H       -1.31412272      -0.87230413      -1.04037338
H       -0.32868453       2.03490325       0.87057476
H       -0.85113871       1.88237788      -0.81416499
14
Frame=3 idx=002049 GeodesicLength=0.1924912471557523 rxn_smarts="[C:1]1([H:7])([H:8])[C:2]([H:9])([H:10])[O:3][C:4]([H:11])([H:12])[O:5][C:6]1([H:13])[H:14]>>[C:1]1([H:8])=[C:2]([H:10])[O:3][C:4]([H:11])([H:12])[O:5][C:6]1([H:13])[H:14].[H:7][H:9]"
C        0.74949163       0.52036610      -0.26408896
C        0.84501422      -0.76211715       0.38224738
O       -0.29599617      -1.45533823       0.62851476
C       -1.43233175      -0.82943246       0.05751777
O       -1.55640124       0.46570513       0.53238966
C       -0.50496992       1.31874795       0.06013986
H        2.24610917       0.28178398      -0.26297438
H        0.96032604       0.55605172      -1.32556605
H        2.28722269      -0.76844305      -0.37906290
H        1.52927391      -0.97435466       1.19153957
H       -2.30002191      -1.39436698       0.38899353
H       -1.33616226      -0.86505203      -1.03748914
H       -0.33023243       2.04764136       0.85290797
H       -0.86132197       1.85880831      -0.82506907
14
Frame=4 idx=002049 GeodesicLength=0.256362053209629 rxn_smarts="[C:1]1([H:7])([H:8])[C:2]([H:9])([H:10])[O:3][C:4]([H:11])([H:12])[O:5][C:6]1([H:13])[H:14]>>[C:1]1([H:8])=[C:2]([H:10])[O:3][C:4]([H:11])([H:12])[O:5][C:6]1([H:13])[H:14].[H:7][H:9]"
C        0.75323573       0.52219534      -0.25816997
C        0.84362552      -0.76943256       0.36855585
O       -0.29934875      -1.46441907       0.61067077
C       -1.43922323      -0.82795183       0.06235398
O       -1.54996685       0.46484323       0.54836699
C       -0.50588457       1.31425329       0.05789890
H        2.26467536       0.29970555      -0.24972088
H        0.97336720       0.57195484      -1.31812988
H        2.30687428      -0.76967221      -0.37309719
H        1.52000023      -0.98881045       1.18380868
H       -2.30560700      -1.38986322       0.40255991
H       -1.35837805      -0.85796734      -1.03425815
H       -0.33230214       2.06005255       0.83489180
H       -0.87106773       1.83511188      -0.83573081
14
Frame=5 idx=002049 GeodesicLength=0.3199754114138489 rxn_smarts="[C:1]1([H:7])([H:8])[C:2]([H:9])([H:10])[O:3][C:4]([H:11])([H:12])[O:5][C:6]1([H:13])[H:14]>>[C:1]1([H:8])=[C:2]([H:10])[O:3][C:4]([H:11])([H:12])[O:5][C:6]1([H:13])[H:14].[H:7][H:9]"
C        0.75700227       0.52409681      -0.25213601
C        0.84218259      -0.77656007       0.35450595
O       -0.30287511      -1.47302327       0.59278723
C       -1.44606446      -0.82645657       0.06728902
O       -1.54346020       0.46405129       0.56373480
C       -0.50679355       1.30978083       0.05557471
H        2.28325761       0.31781258      -0.23599942
H        0.98644281       0.58809936      -1.31029892
H        2.32631623      -0.77138696      -0.36715062
H        1.51078799      -1.00336508       1.17538856
H       -2.31085991      -1.38542669       0.41654290
H       -1.38071845      -0.85107304      -1.03069199
H       -0.33488344       2.07209662       0.81658813
H       -0.88033438       1.81135419      -0.84613435
14
Frame=6 idx=002049 GeodesicLength=0.3832996930549116 rxn_smarts="[C:1]1([H:7])([H:8])[C:2]([H:9])([H:10])[O:3][C:4]([H:11])([H:12])[O:5][C:6]1([H:13])[H:14]>>[C:1]1([H:8])=[C:2]([H:10])[O:3][C:4]([H:11])([H:12])[O:5][C:6]1([H:13])[H:14].[H:7][H:9]"
C        0.76078510       0.52606819      -0.24597917
C        0.84066880      -0.78346167       0.34015197
O       -0.30658441      -1.48113936       0.57493677
C       -1.45283969      -0.82495462       0.07230312
O       -1.53694731       0.46335220       0.57846858
C       -0.50770103       1.30534791       0.05318640
H        2.30184889       0.33607402      -0.22188709
H        0.99948752       0.60441207      -1.30207652
H        2.34554561      -0.77363641      -0.36126965
H        1.50165716      -1.01793406       1.16631054
H       -2.31575537      -1.38108933       0.43086968
H       -1.40311955      -0.84439291      -1.02680860
H       -0.33795539       2.08373311       0.79806368
H       -0.88909033       1.78762084      -0.85626971
14
Frame=7 idx=002049 GeodesicLength=0.44742709801137964 rxn_smarts="[C:1]1([H:7])([H:8])[C:2]([H:9])([H:10])[O:3][C:4]([H:11])([H:12])[O:5][C:6]1([H:13])[H:14]>>[C:1]1([H:8])=[C:2]([H:10])[O:3][C:4]([H:11])([H:12])[O:5][C:6]1([H:13])[H:14].[H:7][H:9]"
C        0.76459588       0.52818364      -0.23960550
C        0.83913623      -0.79005208       0.32561365
O       -0.31039620      -1.48862893       0.55736453
C       -1.45948340      -0.82345823       0.07741004
O       -1.53043675       0.46270317       0.59239444
C       -0.50862500       1.30096219       0.05067218
H        2.32035173       0.35492155      -0.20684089
H        1.01265536       0.62102006      -1.29334640
H        2.36397438      -0.77707791      -0.35615536
H        1.49282731      -1.03260847       1.15648918
H       -2.32028186      -1.37680460       0.44549178
H       -1.42538731      -0.83805927      -1.02257252
H       -0.34158505       2.09503623       0.77932081
H       -0.89734531       1.76386264      -0.86623593
14
Frame=8 idx=002049 GeodesicLength=0.5107242708850978 rxn_smarts="[C:1]1([H:7])([H:8])[C:2]([H:9])([H:10])[O:3][C:4]([H:11])([H:12])[O:5][C:6]1([H:13])[H:14]>>[C:1]1([H:8])=[C:2]([H:10])[O:3][C:4]([H:11])([H:12])[O:5][C:6]1([H:13])[H:14].[H:7][H:9]"
C        0.76839560       0.53032520      -0.23312600
C        0.83749216      -0.79639171       0.31078498
O       -0.31441388      -1.49568287       0.53978597
C       -1.46607560      -0.82195396       0.08256377
O       -1.52400233       0.46218094       0.60576420
C       -0.50953467       1.29662354       0.04812667
H        2.33892046       0.37377434      -0.19168915
H        1.02564002       0.63764951      -1.28424943
H        2.38239358      -0.78086576      -0.35087973
H        1.48403416      -1.04717745       1.14609616
H       -2.32443003      -1.37267773       0.46038037
H       -1.44774982      -0.83187884      -1.01805341
H       -0.34561381       2.10586730       0.76041603
H       -0.90505584       1.74020749      -0.87592043
14
Frame=9 idx=002049 GeodesicLength=0.5744698488415101 rxn_smarts="[C:1]1([H:7])([H:8])[C:2]([H:9])([H:10])[O:3][C:4]([H:11])([H:12])[O:5][C:6]1([H:13])[H:14]>>[C:1]1([H:8])=[C:2]([H:10])[O:3][C:4]([H:11])([H:12])[O:5][C:6]1([H:13])[H:14].[H:7][H:9]"
C        0.77220778       0.53259992      -0.22641677
C        0.83582204      -0.80239657       0.29583437
O       -0.31852440      -1.50214511       0.52253179
C       -1.47253068      -0.82046041       0.08778926
O       -1.51762582       0.46173933       0.61835315
C       -0.51045484       1.29233813       0.04546438
H        2.35737313       0.39316363      -0.17566696
H        1.03867459       0.65448722      -1.27465248
H        2.40005581      -0.78581901      -0.34643429
H        1.47552991      -1.06175839       1.13502814
H       -2.32820528      -1.36862769       0.47548824
H       -1.46994747      -0.82604012      -1.01321250
H       -0.35013946       2.11635649       0.74134807
H       -0.91223531       1.71656258      -0.88545441
14
Frame=10 idx=002049 GeodesicLength=0.6379082440691135 rxn_smarts="[C:1]1([H:7])([H:8])[C:2]([H:9])([H:10])[O:3][C:4]([H:11])([H:12])[O:5][C:6]1([H:13])[H:14]>>[C:1]1([H:8])=[C:2]([H:10])[O:3][C:4]([H:11])([H:12])[O:5][C:6]1([H:13])[H:14].[H:7][H:9]"
C        0.77601006       0.53492963      -0.21953249
C        0.83406319      -0.80810335       0.28069126
O       -0.32278275      -1.50813869       0.50543997
C       -1.47890022      -0.81897153       0.09307102
O       -1.51136746       0.46142495       0.63033987
C       -0.51137576       1.28810402       0.04273060
H        2.37582264       0.41283325      -0.15913686
H        1.05162383       0.67139080      -1.26461123
H        2.41738280      -0.79150127      -0.34236118
H        1.46719356      -1.07625934       1.12335015
H       -2.33160485      -1.36470328       0.49080659
H       -1.49212276      -0.82042784      -1.00808092
H       -0.35506386       2.12643809       0.72209847
H       -0.91887842       1.69298456      -0.89480525
14
Frame=11 idx=002049 GeodesicLength=0.7012666677802772 rxn_smarts="[C:1]1([H:7])([H:8])[C:2]([H:9])([H:10])[O:3][C:4]([H:11])([H:12])[O:5][C:6]1([H:13])[H:14]>>[C:1]1([H:8])=[C:2]([H:10])[O:3][C:4]([H:11])([H:12])[O:5][C:6]1([H:13])[H:14].[H:7][H:9]"
C        0.77979868       0.53731460      -0.21244727
C        0.83221523      -0.81350786       0.26532927
O       -0.32719049      -1.51365704       0.48848210
C       -1.48519259      -0.81748346       0.09842658
O       -1.50518833       0.46123206       0.64172028
C       -0.51229447       1.28391404       0.03988474
H        2.39423873       0.43294227      -0.14192821
H        1.06454560       0.68840529      -1.25407400
H        2.43432863      -0.79803038      -0.33876593
H        1.45905843      -1.09074865       1.11102445
H       -2.33463086      -1.36089878       0.50638463
H       -1.51431636      -0.81503740      -1.00262709
H       -0.36038197       2.13615594       0.70261466
H       -0.92499023       1.66939937      -0.90402421
14
Frame=12 idx=002049 GeodesicLength=0.7644275716807272 rxn_smarts="[C:1]1([H:7])([H:8])[C:2]([H:9])([H:10])[O:3][C:4]([H:11])([H:12])[O:5][C:6]1([H:13])[H:14]>>[C:1]1([H:8])=[C:2]([H:10])[O:3][C:4]([H:11])([H:12])[O:5][C:6]1([H:13])[H:14].[H:7][H:9]"
C        0.78356771       0.53973855      -0.20515339
C        0.83027386      -0.81862771       0.24973047
O       -0.33173412      -1.51874483       0.47163846
C       -1.49141867      -0.81599286       0.10387098
O       -1.49911282       0.46117767       0.65255480
C       -0.51321324       1.27975991       0.03691104
H        2.41262097       0.45349812      -0.12392219
H        1.07747910       0.70553646      -1.24301503
H        2.45092040      -0.80535161      -0.33571201
H        1.45110582      -1.10523953       1.09801264
H       -2.33727780      -1.35719716       0.52225041
H       -1.53656960      -0.80985222      -0.99684013
H       -0.36606523       2.14552418       0.68283907
H       -0.93057638       1.64577103      -0.91316512
14
Frame=13 idx=002049 GeodesicLength=0.827481630550618 rxn_smarts="[C:1]1([H:7])([H:8])[C:2]([H:9])([H:10])[O:3][C:4]([H:11])([H:12])[O:5][C:6]1([H:13])[H:14]>>[C:1]1([H:8])=[C:2]([H:10])[O:3][C:4]([H:11])([H:12])[O:5][C:6]1([H:13])[H:14].[H:7][H:9]"
C        0.78731508       0.54219267      -0.19763520
C        0.82823420      -0.82346912       0.23385983
O       -0.33641480      -1.52341684       0.45487698
C       -1.49758481      -0.81449775       0.10942767
O       -1.49312226       0.46127121       0.66286161
C       -0.51413160       1.27563564       0.03377492
H        2.43094768       0.47460306      -0.10493412
H        1.09047981       0.72282069      -1.23138593
H        2.46713653      -0.81352199      -0.33329650
H        1.44335224      -1.11978134       1.08426223
H       -2.33953413      -1.35358629       0.53846082
H       -1.55892748      -0.80486460      -0.99069030
H       -0.37210695       2.15457247       0.66269833
H       -0.93564351       1.62204220      -0.92228033
14
Frame=14 idx=002049 GeodesicLength=0.8904699507266018 rxn_smarts="[C:1]1([H:7])([H:8])[C:2]([H:9])([H:10])[O:3][C:4]([H:11])([H:12])[O:5][C:6]1([H:13])[H:14]>>[C:1]1([H:8])=[C:2]([H:10])[O:3][C:4]([H:11])([H:12])[O:5][C:6]1([H:13])[H:14].[H:7][H:9]"
C        0.79104076       0.54466222      -0.18987522
C        0.82609009      -0.82803185       0.21767794
O       -0.34123368      -1.52768483       0.43816413
C       -1.50370166      -0.81299400       0.11512416
O       -1.48721417       0.46151850       0.67266894
C       -0.51504951       1.27153439       0.03044043
H        2.44917941       0.49634491      -0.08475522
H        1.10361919       0.74028438      -1.21912475
H        2.48297774      -0.82258227      -0.33163366
H        1.43580905      -1.13441216       1.06969879
H       -2.34138697      -1.35005482       0.55508152
H       -1.58144302      -0.80006318      -0.98414194
H       -0.37849330       2.16332456       0.64210611
H       -0.94019393       1.59815415      -0.93143124
14
Frame=15 idx=002049 GeodesicLength=0.9534312882107344 rxn_smarts="[C:1]1([H:7])([H:8])[C:2]([H:9])([H:10])[O:3][C:4]([H:11])([H:12])[O:5][C:6]1([H:13])[H:14]>>[C:1]1([H:8])=[C:2]([H:10])[O:3][C:4]([H:11])([H:12])[O:5][C:6]1([H:13])[H:14].[H:7][H:9]"
C        0.79474148       0.54713874      -0.18184896
C        0.82382257      -0.83232522       0.20114343
O       -0.34619355      -1.53156325       0.42148253
C       -1.50976300      -0.81147520       0.12099032
O       -1.48136874       0.46195246       0.68198772
C       -0.51596391       1.26744867       0.02686531
H        2.46726883       0.51881398      -0.06312489
H        1.11695797       0.75796833      -1.20616225
H        2.49839418      -0.83257197      -0.33088319
H        1.42848672      -1.14918583       1.05423442
H       -2.34279157      -1.34658041       0.57217447
H       -1.60415263      -0.79545540      -0.97714350
H       -0.38522392       2.17180479       0.62095639
H       -0.94421442       1.57403031      -0.94067178
14
Frame=16 idx=002049 GeodesicLength=1.0163837710477648 rxn_smarts="[C:1]1([H:7])([H:8])[C:2]([H:9])([H:10])[O:3][C:4]([H:11])([H:12])[O:5][C:6]1([H:13])[H:14]>>[C:1]1([H:8])=[C:2]([H:10])[O:3][C:4]([H:11])([H:12])[O:5][C:6]1([H:13])[H:14].[H:7][H:9]"
C        0.79841478       0.54961521      -0.17353322
C        0.82143667      -0.83632964       0.18427207
O       -0.35128728      -1.53504393       0.40487654
C       -1.51577207      -0.80994061       0.12703431
O       -1.47562085       0.46258845       0.69080904
C       -0.51687456       1.26337913       0.02302822
H        2.48516975       0.54207942      -0.03989628
H        1.13051536       0.77585988      -1.19244869
H        2.51335342      -0.84357045      -0.33122476
H        1.42143203      -1.16409107       1.03785051
H       -2.34375147      -1.34315922       0.58974544
H       -1.62704867      -0.79105172      -0.96969035
H       -0.39227881       2.18000853       0.59921478
H       -0.94768830       1.54965602      -0.95003762
