11
Frame=0 idx=003140 GeodesicLength=0.0 rxn_smarts="[c:1]1([H:7])[c:2]([H:8])[c:3]([H:9])[n:4][c:5]([H:10])[c:6]1[H:11]>>[C:1]1([H:7])=[C:2]=[C:3]([H:9])[N:4]=[C:5]([H:10])[C:6]1([H:8])[H:11]"
C       -0.60093580       1.05127582       0.27922582
C       -1.59992194       0.05860504       0.37933821
C       -1.05903888      -1.22412692       0.14542492
N        0.21615919      -1.56715889      -0.10297589
C        1.13523289      -0.61983057      -0.12966216
C        0.80788326       0.72846768       0.03272635
H       -0.82860944       2.10993437       0.38364690
H       -0.07375585       0.95913484      -0.88772805
H       -1.72245365      -2.08560404       0.18379952
H        2.16609864      -0.91983752      -0.28795241
H        1.55934154       1.50914019       0.00415675
11
Frame=1 idx=003140 GeodesicLength=0.10377435614862562 rxn_smarts="[c:1]1([H:7])[c:2]([H:8])[c:3]([H:9])[n:4][c:5]([H:10])[c:6]1[H:11]>>[C:1]1([H:7])=[C:2]=[C:3]([H:9])[N:4]=[C:5]([H:10])[C:6]1([H:8])[H:11]"
C       -0.59389553       1.05421071       0.30080654
C       -1.59227769       0.06279880       0.33353728
C       -1.05607781      -1.22605453       0.15587229
N        0.22189946      -1.57222583      -0.08721322
C        1.13517531      -0.62201051      -0.12823961
C        0.80560612       0.73124970       0.01871333
H       -0.82783042       2.11128156       0.40499474
H       -0.09916153       0.96056445      -0.91016653
H       -1.72351990      -2.08433593       0.18863219
H        2.16584069      -0.92090399      -0.29107451
H        1.56424130       1.50542557       0.01413749
11
Frame=2 idx=003140 GeodesicLength=0.20734153486813156 rxn_smarts="[c:1]1([H:7])[c:2]([H:8])[c:3]([H:9])[n:4][c:5]([H:10])[c:6]1[H:11]>>[C:1]1([H:7])=[C:2]=[C:3]([H:9])[N:4]=[C:5]([H:10])[C:6]1([H:8])[H:11]"
C       -0.58725442       1.05642286       0.32033290
C       -1.58157309       0.06656174       0.29254185
C       -1.05364413      -1.22714850       0.16443408
N        0.22747053      -1.57684996      -0.07168730
C        1.13511142      -0.62401831      -0.12663884
C        0.80305752       0.73420909       0.00461133
H       -0.82782051       2.11179174       0.42443936
H       -0.12462787       0.96196743      -0.93389908
H       -1.72496527      -2.08220187       0.19360483
H        2.16544727      -0.92184608      -0.29456864
H        1.56879855       1.50111188       0.02682950
11
Frame=3 idx=003140 GeodesicLength=0.3108898950248101 rxn_smarts="[c:1]1([H:7])[c:2]([H:8])[c:3]([H:9])[n:4][c:5]([H:10])[c:6]1[H:11]>>[C:1]1([H:7])=[C:2]=[C:3]([H:9])[N:4]=[C:5]([H:10])[C:6]1([H:8])[H:11]"
C       -0.58082450       1.05811994       0.33838753
C       -1.56852472       0.06999661       0.25619283
C       -1.05160145      -1.22755120       0.17108570
N        0.23295111      -1.58102399      -0.05621532
C        1.13510736      -0.62582386      -0.12454724
C        0.80034084       0.73737252      -0.00945299
H       -0.82838841       2.11170912       0.44207141
H       -0.15024705       0.96303108      -0.95878758
H       -1.72670400      -2.07934729       0.19827323
H        2.16491649      -0.92264304      -0.29849188
H        1.57297433       1.49616011       0.04148430
11
Frame=4 idx=003140 GeodesicLength=0.4144661035602036 rxn_smarts="[c:1]1([H:7])[c:2]([H:8])[c:3]([H:9])[n:4][c:5]([H:10])[c:6]1[H:11]>>[C:1]1([H:7])=[C:2]=[C:3]([H:9])[N:4]=[C:5]([H:10])[C:6]1([H:8])[H:11]"
C       -0.57446622       1.05944605       0.35540912
C       -1.55369642       0.07321359       0.22403154
C       -1.04983051      -1.22740056       0.17608458
N        0.23840110      -1.58474840      -0.04076285
C        1.13520527      -0.62740390      -0.12183264
C        0.79753933       0.74073701      -0.02330595
H       -0.82935991       2.11119370       0.45811367
H       -0.17610390       0.96356528      -0.98466339
H       -1.72868135      -2.07588472       0.20230834
H        2.16426101      -0.92329110      -0.30276762
H        1.57673160       1.49057303       0.05738521
11
Frame=5 idx=003140 GeodesicLength=0.5182399582623132 rxn_smarts="[c:1]1([H:7])[c:2]([H:8])[c:3]([H:9])[n:4][c:5]([H:10])[c:6]1[H:11]>>[C:1]1([H:7])=[C:2]=[C:3]([H:9])[N:4]=[C:5]([H:10])[C:6]1([H:8])[H:11]"
C       -0.56808304       1.06046632       0.37181006
C       -1.53750661       0.07630746       0.19538334
C       -1.04821515      -1.22677570       0.17968069
N        0.24378378      -1.58801690      -0.02548799
C        1.13543438      -0.62874347      -0.11846982
C        0.79470041       0.74428966      -0.03674491
H       -0.83060401       2.11032284       0.47288552
H       -0.20220364       0.96344233      -1.01142965
H       -1.73080200      -2.07187340       0.20567846
H        2.16348741      -0.92382599      -0.30721173
H        1.58000846       1.48440685       0.07390603
11
Frame=6 idx=003140 GeodesicLength=0.6221315231680703 rxn_smarts="[c:1]1([H:7])[c:2]([H:8])[c:3]([H:9])[n:4][c:5]([H:10])[c:6]1[H:11]>>[C:1]1([H:7])=[C:2]=[C:3]([H:9])[N:4]=[C:5]([H:10])[C:6]1([H:8])[H:11]"
C       -0.56161825       1.06123361       0.38785523
C       -1.52025083       0.07937844       0.16973631
C       -1.04671254      -1.22577265       0.18217077
N        0.24914246      -1.59086340      -0.01039750
C        1.13581072      -0.62984781      -0.11444589
C        0.79187705       0.74800815      -0.04958553
H       -0.83200316       2.10915181       0.48667084
H       -0.22859047       0.96257141      -1.03894419
H       -1.73307268      -2.06736769       0.20817874
H        2.16263011      -0.92424613      -0.31167822
H        1.58278760       1.47775426       0.09043944
11
Frame=7 idx=003140 GeodesicLength=0.7261596000302764 rxn_smarts="[c:1]1([H:7])[c:2]([H:8])[c:3]([H:9])[n:4][c:5]([H:10])[c:6]1[H:11]>>[C:1]1([H:7])=[C:2]=[C:3]([H:9])[N:4]=[C:5]([H:10])[C:6]1([H:8])[H:11]"
C       -0.55506130       1.06173509       0.40377500
C       -1.50216476       0.08250291       0.14647713
C       -1.04528930      -1.22443059       0.18355229
N        0.25442539      -1.59331378       0.00430213
C        1.13632959      -0.63073636      -0.10981206
C        0.78909345       0.75186876      -0.06166117
H       -0.83347891       2.10768010       0.49978527
H       -0.25521354       0.96093842      -1.06718169
H       -1.73545081      -2.06244005       0.21011647
H        2.16170527      -0.92457696      -0.31597755
H        1.58510492       1.47077244       0.10662418
11
Frame=8 idx=003140 GeodesicLength=0.8303728631037203 rxn_smarts="[c:1]1([H:7])[c:2]([H:8])[c:3]([H:9])[n:4][c:5]([H:10])[c:6]1[H:11]>>[C:1]1([H:7])=[C:2]=[C:3]([H:9])[N:4]=[C:5]([H:10])[C:6]1([H:8])[H:11]"
C       -0.54837963       1.06197191       0.41978683
C       -1.48335487       0.08573341       0.12525151
C       -1.04393155      -1.22276789       0.18401118
N        0.25964318      -1.59539468       0.01864011
C        1.13700190      -0.63142406      -0.10456783
C        0.78637021       0.75585994      -0.07287548
H       -0.83497342       2.10590005       0.51245150
H       -0.28212044       0.95841385      -1.09613263
H       -1.73797023      -2.05706755       0.21135171
H        2.16074533      -0.92481919      -0.32002162
H        1.58696952       1.46359421       0.12210472
11
Frame=9 idx=003140 GeodesicLength=0.9344970136824053 rxn_smarts="[c:1]1([H:7])[c:2]([H:8])[c:3]([H:9])[n:4][c:5]([H:10])[c:6]1[H:11]>>[C:1]1([H:7])=[C:2]=[C:3]([H:9])[N:4]=[C:5]([H:10])[C:6]1([H:8])[H:11]"
C       -0.54164543       1.06193399       0.43584003
C       -1.46389759       0.08899510       0.10537491
C       -1.04262303      -1.22075961       0.18334510
N        0.26471909      -1.59716137       0.03235933
C        1.13782390      -0.63197746      -0.09884353
C        0.78378502       0.75995106      -0.08304900
H       -0.83654213       2.10378570       0.52478974
H       -0.30938945       0.95511984      -1.12566358
H       -1.74058834      -2.05125705       0.21262382
H        2.15973846      -0.92502476      -0.32383010
H        1.58861951       1.45639454       0.13705329
11
Frame=10 idx=003140 GeodesicLength=1.0387499851548228 rxn_smarts="[c:1]1([H:7])[c:2]([H:8])[c:3]([H:9])[n:4][c:5]([H:10])[c:6]1[H:11]>>[C:1]1([H:7])=[C:2]=[C:3]([H:9])[N:4]=[C:5]([H:10])[C:6]1([H:8])[H:11]"
C       -0.53477455       1.06161160       0.45221503
C       -1.44388982       0.09247422       0.08692938
C       -1.04134271      -1.21845059       0.18194138
N        0.26969133      -1.59860785       0.04559084
C        1.13880078      -0.63234934      -0.09257334
C        0.78127794       0.76416437      -0.09228905
H       -0.83803748       2.10134659       0.53702899
H       -0.33705290       0.95068714      -1.15603238
H       -1.74335814      -2.04498068       0.21331721
H        2.15872604      -0.92513712      -0.32728041
H        1.58995951       1.44924166       0.15115236
11
Frame=11 idx=003140 GeodesicLength=1.1431068560500433 rxn_smarts="[c:1]1([H:7])[c:2]([H:8])[c:3]([H:9])[n:4][c:5]([H:10])[c:6]1[H:11]>>[C:1]1([H:7])=[C:2]=[C:3]([H:9])[N:4]=[C:5]([H:10])[C:6]1([H:8])[H:11]"
C       -0.52776907       1.06098716       0.46896953
C       -1.42336699       0.09622238       0.06965846
C       -1.04007340      -1.21581665       0.17982949
N        0.27452815      -1.59975348       0.05825278
C        1.13993762      -0.63253900      -0.08579127
C        0.77885692       0.76851406      -0.10058649
H       -0.83942765       2.09856748       0.54931399
H       -0.36519410       0.94492208      -1.18734805
H       -1.74627479      -2.03819266       0.21357338
H        2.15771062      -0.92514766      -0.33038671
H        1.59107269       1.44223629       0.16451490
11
Frame=12 idx=003140 GeodesicLength=1.2475231459018465 rxn_smarts="[c:1]1([H:7])[c:2]([H:8])[c:3]([H:9])[n:4][c:5]([H:10])[c:6]1[H:11]>>[C:1]1([H:7])=[C:2]=[C:3]([H:9])[N:4]=[C:5]([H:10])[C:6]1([H:8])[H:11]"
C       -0.52061900       1.06005801       0.48614362
C       -1.40233337       0.10028124       0.05339186
C       -1.03881574      -1.21282512       0.17704591
N        0.27923750      -1.60059802       0.07034835
C        1.14123730      -0.63254184      -0.07854374
C        0.77654373       0.77302383      -0.10794294
H       -0.84068610       2.09543828       0.56174807
H       -0.39393184       0.93761590      -1.21969917
H       -1.74935582      -2.03083614       0.21343201
H        2.15670583      -0.92503528      -0.33319084
H        1.59201750       1.43541914       0.17726687
11
Frame=13 idx=003140 GeodesicLength=1.3519529964408232 rxn_smarts="[c:1]1([H:7])[c:2]([H:8])[c:3]([H:9])[n:4][c:5]([H:10])[c:6]1[H:11]>>[C:1]1([H:7])=[C:2]=[C:3]([H:9])[N:4]=[C:5]([H:10])[C:6]1([H:8])[H:11]"
C       -0.51331714       1.05881551       0.50376949
C       -1.38079697       0.10470939       0.03795611
C       -1.03755399      -1.20943431       0.17364265
N        0.28379567      -1.60114741       0.08180005
C        1.14270491      -0.63234536      -0.07088767
C        0.77435552       0.77772708      -0.11437664
H       -0.84177852       2.09194943       0.57445990
H       -0.42339702       0.92850317      -1.25319754
H       -1.75259613      -2.02283721       0.21295680
H        2.15572028      -0.92477869      -0.33569082
H        1.59286337       1.42883841       0.18956770
11
Frame=14 idx=003140 GeodesicLength=1.4563573953317226 rxn_smarts="[c:1]1([H:7])[c:2]([H:8])[c:3]([H:9])[n:4][c:5]([H:10])[c:6]1[H:11]>>[C:1]1([H:7])=[C:2]=[C:3]([H:9])[N:4]=[C:5]([H:10])[C:6]1([H:8])[H:11]"
C       -0.50586397       1.05723949       0.52185425
C       -1.35875092       0.10956300       0.02316751
C       -1.03628359      -1.20558835       0.16961115
N        0.28818930      -1.60139146       0.09254347
C        1.14433621      -0.63193541      -0.06290457
C        0.77231014       0.78266212      -0.11990488
H       -0.84268097       2.08807890       0.58757347
H       -0.45371844       0.91730722      -1.28796735
H       -1.75601956      -2.01413621       0.21228670
H        2.15476353      -0.92434801      -0.33791880
H        1.59371829       1.42254871       0.20165905
11
Frame=15 idx=003140 GeodesicLength=1.5606589942169486 rxn_smarts="[c:1]1([H:7])[c:2]([H:8])[c:3]([H:9])[n:4][c:5]([H:10])[c:6]1[H:11]>>[C:1]1([H:7])=[C:2]=[C:3]([H:9])[N:4]=[C:5]([H:10])[C:6]1([H:8])[H:11]"
C       -0.49825174       1.05533881       0.54038766
C       -1.33617429       0.11489276       0.00890709
C       -1.03499807      -1.20123089       0.16501256
N        0.29242535      -1.60131640       0.10258224
C        1.14614074      -0.63130055      -0.05465015
C        0.77045738       0.78787543      -0.12452070
H       -0.84337141       2.08383204       0.60116949
H       -0.48508146       0.90373033      -1.32406641
H       -1.75963514      -2.00464525       0.21138584
H        2.15384538      -0.92372132      -0.33993655
H        1.59464326       1.41654505       0.21372894
11
Frame=16 idx=003140 GeodesicLength=1.6647777350950184 rxn_smarts="[c:1]1([H:7])[c:2]([H:8])[c:3]([H:9])[n:4][c:5]([H:10])[c:6]1[H:11]>>[C:1]1([H:7])=[C:2]=[C:3]([H:9])[N:4]=[C:5]([H:10])[C:6]1([H:8])[H:11]"
C       -0.49047839       1.05312196       0.55933674
C       -1.31303900       0.12075688      -0.00496535
C       -1.03369211      -1.19630149       0.15988537
N        0.29650543      -1.60090408       0.11190350
C        1.14813029      -0.63042667      -0.04617792
C        0.76885749       0.79341785      -0.12820719
H       -0.84383133       2.07921789       0.61531951
H       -0.51769215       0.88745166      -1.36153352
H       -1.76345564      -1.99428252       0.21025122
H        2.15297195      -0.92288036      -0.34182769
H        1.59572346       1.41082888       0.22601532
