15
Frame=0 idx=010492 GeodesicLength=0.0 rxn_smarts="[C:1]([c:2]1[c:3]([H:11])[n:4]([H:12])[c:5]([N:6]([H:13])[H:14])[c:7]1[H:15])([H:8])([H:9])[H:10]>>[C:1]([C:2]1=[C:7]([H:15])[C:5](=[N:6][H:14])[N+:4]([H:12])([H:13])[C-:3]1[H:11])([H:8])([H:9])[H:10]"
C       -2.31447524      -0.15286187       0.05750002
C       -0.83835564       0.04197115      -0.03443884
C       -0.20232320       1.23029819       0.02955268
N        1.21431297       0.97171792      -0.15556281
C        1.35385121      -0.49078822      -0.07772646
N        2.62418530      -0.58975728       0.28349137
C        0.11258184      -1.05250560      -0.15812021
H       -2.69123461      -0.63828356      -0.84555565
H       -2.56558948      -0.79945951       0.90127923
H       -2.83590218       0.79580832       0.18401227
H       -0.58490463       2.23659731       0.04633129
H        1.50422106       1.26299296      -1.08793833
H        2.30142273       0.77062085       0.45633694
H        3.04588415      -1.48708096       0.45559134
H       -0.12367430      -2.09926974      -0.05475284
15
Frame=1 idx=010492 GeodesicLength=0.049002616993054735 rxn_smarts="[C:1]([c:2]1[c:3]([H:11])[n:4]([H:12])[c:5]([N:6]([H:13])[H:14])[c:7]1[H:15])([H:8])([H:9])[H:10]>>[C:1]([C:2]1=[C:7]([H:15])[C:5](=[N:6][H:14])[N+:4]([H:12])([H:13])[C-:3]1[H:11])([H:8])([H:9])[H:10]"
C       -2.31519048      -0.15515078       0.05622437
C       -0.83907666       0.04062183      -0.03657885
C       -0.20309336       1.22966962       0.02980261
N        1.21191897       0.97329642      -0.15377270
C        1.35648593      -0.48907049      -0.10003085
N        2.62514551      -0.59331904       0.27262297
C        0.11284037      -1.05079424      -0.15362319
H       -2.69055108      -0.65271660      -0.84078320
H       -2.56707120      -0.79070933       0.90811591
H       -2.83822905       0.79442255       0.16874585
H       -0.58678221       2.23569359       0.04161496
H        1.51305463       1.28474933      -1.07567380
H        2.30755951       0.76798179       0.47425226
H        3.03233753      -1.49776316       0.44351583
H       -0.11934842      -2.09691148      -0.03443216
15
Frame=2 idx=010492 GeodesicLength=0.09798040095556532 rxn_smarts="[C:1]([c:2]1[c:3]([H:11])[n:4]([H:12])[c:5]([N:6]([H:13])[H:14])[c:7]1[H:15])([H:8])([H:9])[H:10]>>[C:1]([C:2]1=[C:7]([H:15])[C:5](=[N:6][H:14])[N+:4]([H:12])([H:13])[C-:3]1[H:11])([H:8])([H:9])[H:10]"
C       -2.31596519      -0.15744738       0.05483987
C       -0.83986721       0.03935434      -0.03864441
C       -0.20398200       1.22918982       0.02969823
N        1.20946581       0.97482562      -0.15177920
C        1.35874610      -0.48707656      -0.12130419
N        2.62584351      -0.59688001       0.26208633
C        0.11324060      -1.04888354      -0.14844864
H       -2.68970394      -0.66738941      -0.83587189
H       -2.56872488      -0.78163251       0.91483491
H       -2.84063540       0.79285000       0.15298140
H       -0.58876437       2.23491935       0.03599895
H        1.52217028       1.30599153      -1.06255192
H        2.31350674       0.76467101       0.49303509
H        3.01939728      -1.50835522       0.42865357
H       -0.11472732      -2.09413705      -0.01352811
15
Frame=3 idx=010492 GeodesicLength=0.14692529861172476 rxn_smarts="[C:1]([c:2]1[c:3]([H:11])[n:4]([H:12])[c:5]([N:6]([H:13])[H:14])[c:7]1[H:15])([H:8])([H:9])[H:10]>>[C:1]([C:2]1=[C:7]([H:15])[C:5](=[N:6][H:14])[N+:4]([H:12])([H:13])[C-:3]1[H:11])([H:8])([H:9])[H:10]"
C       -2.31676910      -0.15976267       0.05349193
C       -0.84070605       0.03815698      -0.04063211
C       -0.20496741       1.22885321       0.02916232
N        1.20696349       0.97631000      -0.14974789
C        1.36065715      -0.48483825      -0.14162349
N        2.62630548      -0.60041414       0.25184024
C        0.11377342      -1.04676311      -0.14296433
H       -2.68878828      -0.68210872      -0.83072782
H       -2.57041678      -0.77241861       0.92147203
H       -2.84306215       0.79105314       0.13714576
H       -0.59081958       2.23426330       0.02949825
H        1.53152185       1.32666268      -1.04877413
H        2.31931648       0.76072214       0.51245965
H        3.00683305      -1.51874317       0.41207969
H       -0.10984156      -2.09097278       0.00731989
15
Frame=4 idx=010492 GeodesicLength=0.19583269085361632 rxn_smarts="[C:1]([c:2]1[c:3]([H:11])[n:4]([H:12])[c:5]([N:6]([H:13])[H:14])[c:7]1[H:15])([H:8])([H:9])[H:10]>>[C:1]([C:2]1=[C:7]([H:15])[C:5](=[N:6][H:14])[N+:4]([H:12])([H:13])[C-:3]1[H:11])([H:8])([H:9])[H:10]"
C       -2.31758324      -0.16209759       0.05226892
C       -0.84157486       0.03701590      -0.04248536
C       -0.20602718       1.22864921       0.02817659
N        1.20441671       0.97775116      -0.14782584
C        1.36225201      -0.48238813      -0.16103744
N        2.62656032      -0.60388827       0.24188656
C        0.11442389      -1.04444134      -0.13740734
H       -2.68784589      -0.69669461      -0.82534152
H       -2.57209090      -0.76323096       0.92801264
H       -2.84546905       0.78902232       0.12154706
H       -0.59291584       2.23371066       0.02219120
H        1.54103486       1.34669386      -1.03454232
H        2.32505070       0.75619782       0.53231048
H        2.99449777      -1.52883195       0.39456198
H       -0.10472929      -2.08746809       0.02768438
15
Frame=5 idx=010492 GeodesicLength=0.24469509470609355 rxn_smarts="[C:1]([c:2]1[c:3]([H:11])[n:4]([H:12])[c:5]([N:6]([H:13])[H:14])[c:7]1[H:15])([H:8])([H:9])[H:10]>>[C:1]([C:2]1=[C:7]([H:15])[C:5](=[N:6][H:14])[N+:4]([H:12])([H:13])[C-:3]1[H:11])([H:8])([H:9])[H:10]"
C       -2.31840573      -0.16444042       0.05117662
C       -0.84245937       0.03591339      -0.04408000
C       -0.20713744       1.22855434       0.02682974
N        1.20182202       0.97915032      -0.14614662
C        1.36356755      -0.47977218      -0.17958770
N        2.62665608      -0.60727118       0.23218694
C        0.11517680      -1.04194242      -0.13184343
H       -2.68685210      -0.71097362      -0.81981893
H       -2.57380036      -0.75419925       0.93435581
H       -2.84783956       0.78677391       0.10633459
H       -0.59501880       2.23323830       0.01429898
H        1.55057466       1.36601245      -1.02007736
H        2.33080134       0.75117246       0.55233490
H        2.98233511      -1.53853967       0.37659670
H       -0.09942019      -2.08367642       0.04743976
15
Frame=6 idx=010492 GeodesicLength=0.29347692820952087 rxn_smarts="[C:1]([c:2]1[c:3]([H:11])[n:4]([H:12])[c:5]([N:6]([H:13])[H:14])[c:7]1[H:15])([H:8])([H:9])[H:10]>>[C:1]([C:2]1=[C:7]([H:15])[C:5](=[N:6][H:14])[N+:4]([H:12])([H:13])[C-:3]1[H:11])([H:8])([H:9])[H:10]"
C       -2.31921566      -0.16679554       0.05033755
C       -0.84333830       0.03484035      -0.04540340
C       -0.20826764       1.22856215       0.02506767
N        1.19919707       0.98051830      -0.14488780
C        1.36464450      -0.47702302      -0.19734780
N        2.62659437      -0.61053405       0.22282067
C        0.11603250      -1.03927705      -0.12654997
H       -2.68589334      -0.72476433      -0.81412986
H       -2.57543567      -0.74551820       0.94054420
H       -2.85014214       0.78431099       0.09190043
H       -0.59708870       2.23284421       0.00587046
H        1.56009685       1.38455796      -1.00561904
H        2.33661326       0.74574541       0.57234172
H        2.97014914      -1.54777924       0.35908165
H       -0.09394624      -2.07968795       0.06597352
15
Frame=7 idx=010492 GeodesicLength=0.3422335174876351 rxn_smarts="[C:1]([c:2]1[c:3]([H:11])[n:4]([H:12])[c:5]([N:6]([H:13])[H:14])[c:7]1[H:15])([H:8])([H:9])[H:10]>>[C:1]([C:2]1=[C:7]([H:15])[C:5](=[N:6][H:14])[N+:4]([H:12])([H:13])[C-:3]1[H:11])([H:8])([H:9])[H:10]"
C       -2.31994572      -0.16917916       0.04990956
C       -0.84418272       0.03379740      -0.04647469
C       -0.20940866       1.22867892       0.02271752
N        1.19654350       0.98183608      -0.14416730
C        1.36550827      -0.47413771      -0.21434096
N        2.62636605      -0.61367321       0.21387419
C        0.11696296      -1.03642380      -0.12188472
H       -2.68502580      -0.73789109      -0.80820396
H       -2.57679409      -0.73742816       0.94664496
H       -2.85228004       0.78163613       0.07872316
H       -0.59913860       2.23250530      -0.00322856
H        1.56961580       1.40230069      -0.99138228
H        2.34246584       0.74002290       0.59234060
H        2.95769537      -1.55650820       0.34280708
H       -0.08838216      -2.07553608       0.08266539
15
Frame=8 idx=010492 GeodesicLength=0.3908788212555246 rxn_smarts="[C:1]([c:2]1[c:3]([H:11])[n:4]([H:12])[c:5]([N:6]([H:13])[H:14])[c:7]1[H:15])([H:8])([H:9])[H:10]>>[C:1]([C:2]1=[C:7]([H:15])[C:5](=[N:6][H:14])[N+:4]([H:12])([H:13])[C-:3]1[H:11])([H:8])([H:9])[H:10]"
C       -2.32068047      -0.17155115       0.04969323
C       -0.84502075       0.03276757      -0.04724457
C       -0.21054974       1.22886369       0.02008967
N        1.19386443       0.98316923      -0.14399719
C        1.36621957      -0.47118960      -0.23066748
N        2.62602156      -0.61664279       0.20533452
C        0.11797994      -1.03347382      -0.11744044
H       -2.68419538      -0.75047933      -0.80222870
H       -2.57813935      -0.72970674       0.95256073
H       -2.85438532       0.77881876       0.06630417
H       -0.60112217       2.23222860      -0.01254005
H        1.57900866       1.41928696      -0.97735861
H        2.34846656       0.73403357       0.61212757
H        2.94525064      -1.56477526       0.32723452
H       -0.08271818      -2.07134970       0.09813265
15
Frame=9 idx=010492 GeodesicLength=0.43952787818967354 rxn_smarts="[C:1]([c:2]1[c:3]([H:11])[n:4]([H:12])[c:5]([N:6]([H:13])[H:14])[c:7]1[H:15])([H:8])([H:9])[H:10]>>[C:1]([C:2]1=[C:7]([H:15])[C:5](=[N:6][H:14])[N+:4]([H:12])([H:13])[C-:3]1[H:11])([H:8])([H:9])[H:10]"
C       -2.32134246      -0.17392179       0.04984841
C       -0.84581442       0.03175856      -0.04771517
C       -0.21168672       1.22912266       0.01698369
N        1.19113838       0.98445243      -0.14445258
C        1.36680616      -0.46814232      -0.24631628
N        2.62556629      -0.61944389       0.19726070
C        0.11904201      -1.03040878      -0.11356682
H       -2.68343508      -0.76233668      -0.79615114
H       -2.57926914      -0.72260765       0.95835677
H       -2.85634481       0.77587836       0.05512832
H       -0.60308057       2.23196840      -0.02229788
H        1.58829774       1.43549891      -0.96373542
H        2.35457365       0.72788948       0.63182057
H        2.93258761      -1.57255303       0.31302249
H       -0.07703865      -2.06715466       0.11181432
15
Frame=10 idx=010492 GeodesicLength=0.4881354219089067 rxn_smarts="[C:1]([c:2]1[c:3]([H:11])[n:4]([H:12])[c:5]([N:6]([H:13])[H:14])[c:7]1[H:15])([H:8])([H:9])[H:10]>>[C:1]([C:2]1=[C:7]([H:15])[C:5](=[N:6][H:14])[N+:4]([H:12])([H:13])[C-:3]1[H:11])([H:8])([H:9])[H:10]"
C       -2.32198190      -0.17627945       0.05025399
C       -0.84658415       0.03076701      -0.04789312
C       -0.21281478       1.22944222       0.01359167
N        1.18837940       0.98574237      -0.14549755
C        1.36729205      -0.46504775      -0.26139245
N        2.62502099      -0.62208026       0.18959417
C        0.12015391      -1.02726051      -0.11000349
H       -2.68271560      -0.77361757      -0.79004939
H       -2.58032847      -0.71595820       0.96401268
H       -2.85823890       0.77284296       0.04483610
H       -0.60499416       2.23174086      -0.03231972
H        1.59745497       1.45102862      -0.95042922
H        2.36081875       0.72154174       0.65140256
H        2.91987675      -1.57987340       0.29972991
H       -0.07133885      -2.06298864       0.12416386
15
Frame=11 idx=010492 GeodesicLength=0.5367347481729651 rxn_smarts="[C:1]([c:2]1[c:3]([H:11])[n:4]([H:12])[c:5]([N:6]([H:13])[H:14])[c:7]1[H:15])([H:8])([H:9])[H:10]>>[C:1]([C:2]1=[C:7]([H:15])[C:5](=[N:6][H:14])[N+:4]([H:12])([H:13])[C-:3]1[H:11])([H:8])([H:9])[H:10]"
C       -2.32260277      -0.17862062       0.05088951
C       -0.84733636       0.02980304      -0.04786544
C       -0.21395359       1.22982371       0.00992284
N        1.18557063       0.98705636      -0.14703098
C        1.36770464      -0.46190520      -0.27595230
N        2.62439460      -0.62457588       0.18234179
C        0.12130060      -1.02403270      -0.10674293
H       -2.68204745      -0.78446768      -0.78385701
H       -2.58130112      -0.70962036       0.96961471
H       -2.86009222       0.76972529       0.03524906
H       -0.60690414       2.23153108      -0.04274240
H        1.60653299       1.46599286      -0.93726182
H        2.36716395       0.71492566       0.67104113
H        2.90720011      -1.58679991       0.28700007
H       -0.06562989      -2.05883566       0.13539378
15
Frame=12 idx=010492 GeodesicLength=0.585232379836009 rxn_smarts="[C:1]([c:2]1[c:3]([H:11])[n:4]([H:12])[c:5]([N:6]([H:13])[H:14])[c:7]1[H:15])([H:8])([H:9])[H:10]>>[C:1]([C:2]1=[C:7]([H:15])[C:5](=[N:6][H:14])[N+:4]([H:12])([H:13])[C-:3]1[H:11])([H:8])([H:9])[H:10]"
C       -2.32320405      -0.18094380       0.05168356
C       -0.84808684       0.02887526      -0.04763352
C       -0.21511141       1.23026549       0.00606564
N        1.18273809       0.98838116      -0.14897225
C        1.36800386      -0.45870589      -0.29004087
N        2.62365437      -0.62693110       0.17543223
C        0.12247520      -1.02073695      -0.10365080
H       -2.68136587      -0.79501322      -0.77758714
H       -2.58223321      -0.70347986       0.97514519
H       -2.86190603       0.76653279       0.02611508
H       -0.60882975       2.23133359      -0.05355831
H        1.61555850       1.48045597      -0.92411985
H        2.37358498       0.70797943       0.69083502
H        2.89463810      -1.59335050       0.27438815
H       -0.05991594      -2.05466237       0.14589787
15
Frame=13 idx=010492 GeodesicLength=0.633750277470457 rxn_smarts="[C:1]([c:2]1[c:3]([H:11])[n:4]([H:12])[c:5]([N:6]([H:13])[H:14])[c:7]1[H:15])([H:8])([H:9])[H:10]>>[C:1]([C:2]1=[C:7]([H:15])[C:5](=[N:6][H:14])[N+:4]([H:12])([H:13])[C-:3]1[H:11])([H:8])([H:9])[H:10]"
C       -2.32378483      -0.18325039       0.05259353
C       -0.84880291       0.02795844      -0.04708231
C       -0.21625184       1.23073594       0.00207635
N        1.17983056       0.98973468      -0.15153494
C        1.36823346      -0.45551435      -0.30369031
N        2.62288092      -0.62913793       0.16875875
C        0.12366566      -1.01737606      -0.10069103
H       -2.68063717      -0.80505061      -0.77145389
H       -2.58321643      -0.69774265       0.98043419
H       -2.86365056       0.76328754       0.01759511
H       -0.61068729       2.23112818      -0.06423524
H        1.62435387       1.49435968      -0.91139087
H        2.38021813       0.70084734       0.71046694
H        2.88207543      -1.59948990       0.26253281
H       -0.05422700      -2.05048990       0.15562092
15
Frame=14 idx=010492 GeodesicLength=0.6822146823572808 rxn_smarts="[C:1]([c:2]1[c:3]([H:11])[n:4]([H:12])[c:5]([N:6]([H:13])[H:14])[c:7]1[H:15])([H:8])([H:9])[H:10]>>[C:1]([C:2]1=[C:7]([H:15])[C:5](=[N:6][H:14])[N+:4]([H:12])([H:13])[C-:3]1[H:11])([H:8])([H:9])[H:10]"
C       -2.32436066      -0.18552597       0.05359625
C       -0.84950791       0.02707416      -0.04628432
C       -0.21740231       1.23124807      -0.00203032
N        1.17687613       0.99109661      -0.15463600
C        1.36838173      -0.45231240      -0.31693889
N        2.62205135      -0.63119656       0.16234990
C        0.12488163      -1.01396644      -0.09779060
H       -2.67986672      -0.81474215      -0.76538660
H       -2.58424448      -0.69224082       0.98557227
H       -2.86536721       0.76001126       0.00947811
H       -0.61254338       2.23094342      -0.07490765
H        1.63298844       1.50775858      -0.89888971
H        2.38701772       0.69344171       0.73011953
H        2.86963740      -1.60524900       0.25099634
H       -0.04854173      -2.04634048       0.16475170
15
Frame=15 idx=010492 GeodesicLength=0.7306646781235605 rxn_smarts="[C:1]([c:2]1[c:3]([H:11])[n:4]([H:12])[c:5]([N:6]([H:13])[H:14])[c:7]1[H:15])([H:8])([H:9])[H:10]>>[C:1]([C:2]1=[C:7]([H:15])[C:5](=[N:6][H:14])[N+:4]([H:12])([H:13])[C-:3]1[H:11])([H:8])([H:9])[H:10]"
C       -2.32491452      -0.18778424       0.05474693
C       -0.85019781       0.02622221      -0.04536582
C       -0.21856811       1.23180115      -0.00633713
N        1.17386908       0.99250438      -0.15822599
C        1.36847187      -0.44909209      -0.32986356
N        2.62114938      -0.63312248       0.15621238
C        0.12611449      -1.01049102      -0.09509037
H       -2.67911724      -0.82419035      -0.75922366
H       -2.58520329      -0.68689317       0.99069329
H       -2.86705579       0.75667724       0.00177089
H       -0.61440915       2.23074770      -0.08578999
H        1.64156419       1.52077923      -0.88646582
H        2.39390127       0.68568894       0.74996993
H        2.85727300      -1.61065533       0.23979241
H       -0.04287738      -2.04219216       0.17317651
15
Frame=16 idx=010492 GeodesicLength=0.7791040212275242 rxn_smarts="[C:1]([c:2]1[c:3]([H:11])[n:4]([H:12])[c:5]([N:6]([H:13])[H:14])[c:7]1[H:15])([H:8])([H:9])[H:10]>>[C:1]([C:2]1=[C:7]([H:15])[C:5](=[N:6][H:14])[N+:4]([H:12])([H:13])[C-:3]1[H:11])([H:8])([H:9])[H:10]"
C       -2.32544642      -0.19002595       0.05606349
C       -0.85087840       0.02541446      -0.04438015
C       -0.21976534       1.23240993      -0.01086364
N        1.17081017       0.99396588      -0.16223758
C        1.36851149      -0.44583356      -0.34250158
N        2.62016579      -0.63492482       0.15036104
C        0.12736291      -1.00694664      -0.09260803
H       -2.67839818      -0.83350871      -0.75286703
H       -2.58606106      -0.68159137       0.99589292
H       -2.86873405       0.75327853      -0.00562150
H       -0.61631782       2.23054577      -0.09709618
H        1.65014020       1.53350010      -0.87395301
H        2.40080856       0.67748765       0.77018797
H        2.84503379      -1.61573550       0.22868213
H       -0.03723164      -2.03803578       0.18094115
