11
Frame=0 idx=002170 GeodesicLength=0.0 rxn_smarts="[O:1]([C:2]([C:3]([C:4]#[C:5][H:11])([H:9])[H:10])([H:7])[H:8])[H:6]>>[C:4](#[C:5][H:11])[H:6].[O:1]=[C:2]([C:3]([H:8])([H:9])[H:10])[H:7]"
O       -1.34330037      -1.17196863       0.87666845
C       -1.19754184      -0.64226830      -0.28569291
C       -0.39207594       0.58050844      -0.36526401
C        1.11748147      -0.17641773       0.72685681
C        2.18443687       0.31656850       0.44000289
H        0.27093610      -0.79960178       1.16285828
H       -1.09275418      -1.29272898      -1.17254729
H       -2.01866013       0.14863689      -0.61432414
H       -0.06094626       0.94148370      -1.33575891
H       -0.58402432       1.33348679       0.39114846
H        3.11644861       0.76230112       0.17605233
11
Frame=1 idx=002170 GeodesicLength=0.09890649744138076 rxn_smarts="[O:1]([C:2]([C:3]([C:4]#[C:5][H:11])([H:9])[H:10])([H:7])[H:8])[H:6]>>[C:4](#[C:5][H:11])[H:6].[O:1]=[C:2]([C:3]([H:8])([H:9])[H:10])[H:7]"
O       -1.31932350      -1.18264005       0.88030184
C       -1.20900407      -0.64666237      -0.28432893
C       -0.40469505       0.57932869      -0.37787746
C        1.12759451      -0.16512314       0.71398632
C        2.20142037       0.31949223       0.44186362
H        0.27476624      -0.81139036       1.15692320
H       -1.12391386      -1.29637596      -1.17357998
H       -2.02398224       0.17292269      -0.60310095
H       -0.07997248       0.92684103      -1.35555052
H       -0.58594664       1.33465752       0.37907292
H        3.14305672       0.76894973       0.22228995
11
Frame=2 idx=002170 GeodesicLength=0.19757950220023396 rxn_smarts="[O:1]([C:2]([C:3]([C:4]#[C:5][H:11])([H:9])[H:10])([H:7])[H:8])[H:6]>>[C:4](#[C:5][H:11])[H:6].[O:1]=[C:2]([C:3]([H:8])([H:9])[H:10])[H:7]"
O       -1.29473803      -1.19325456       0.88311727
C       -1.22050757      -0.65095523      -0.28265362
C       -0.41817074       0.57858633      -0.39029750
C        1.13795741      -0.15248289       0.70003998
C        2.21833525       0.32475327       0.44458507
H        0.27944056      -0.82288440       1.15060368
H       -1.15420719      -1.30014590      -1.17360850
H       -2.02935214       0.19622846      -0.59291856
H       -0.10039375       0.91286535      -1.37491596
H       -0.58875617       1.33594122       0.36728280
H        3.17039236       0.77134834       0.26876533
11
Frame=3 idx=002170 GeodesicLength=0.2961436213392312 rxn_smarts="[O:1]([C:2]([C:3]([C:4]#[C:5][H:11])([H:9])[H:10])([H:7])[H:8])[H:6]>>[C:4](#[C:5][H:11])[H:6].[O:1]=[C:2]([C:3]([H:8])([H:9])[H:10])[H:7]"
O       -1.27038702      -1.20331469       0.88538005
C       -1.23226583      -0.65484392      -0.28050257
C       -0.43147482       0.57782993      -0.40257787
C        1.14883171      -0.14048819       0.68503997
C        2.23603714       0.32899790       0.44805313
H        0.28443425      -0.83499452       1.14426328
H       -1.18453320      -1.30393660      -1.17249206
H       -2.03423006       0.21973999      -0.58373288
H       -0.12079901       0.89864779      -1.39402103
H       -0.59075284       1.33721678       0.35563829
H        3.19513967       0.77514554       0.31495169
11
Frame=4 idx=002170 GeodesicLength=0.3946543838672264 rxn_smarts="[O:1]([C:2]([C:3]([C:4]#[C:5][H:11])([H:9])[H:10])([H:7])[H:8])[H:6]>>[C:4](#[C:5][H:11])[H:6].[O:1]=[C:2]([C:3]([H:8])([H:9])[H:10])[H:7]"
O       -1.24553470      -1.21333757       0.88685471
C       -1.24401168      -0.65865931      -0.27800259
C       -0.44549287       0.57746031      -0.41468004
C        1.15994757      -0.12727389       0.66904230
C        2.25368179       0.33525276       0.45281946
H        0.29016631      -0.84691131       1.13770167
H       -1.21405011      -1.30787966      -1.17048091
H       -2.03920315       0.24245245      -0.57558922
H       -0.14230794       0.88497282      -1.41274907
H       -0.59352711       1.33865680       0.34421229
H        3.22033189       0.77526660       0.36087140
11
Frame=5 idx=002170 GeodesicLength=0.4929992701022484 rxn_smarts="[O:1]([C:2]([C:3]([C:4]#[C:5][H:11])([H:9])[H:10])([H:7])[H:8])[H:6]>>[C:4](#[C:5][H:11])[H:6].[O:1]=[C:2]([C:3]([H:8])([H:9])[H:10])[H:7]"
O       -1.22073991      -1.22285893       0.88774855
C       -1.25600611      -0.66210194      -0.27496683
C       -0.45945410       0.57704751      -0.42671888
C        1.17163792      -0.11453440       0.65168310
C        2.27200378       0.34072203       0.45843366
H        0.29637882      -0.85939226       1.13094386
H       -1.24383386      -1.31177473      -1.16736182
H       -2.04388182       0.26534917      -0.56825521
H       -0.16405376       0.87099389      -1.43129679
H       -0.59555835       1.34005228       0.33279460
H        3.24350739       0.77649739       0.40699577
11
Frame=6 idx=002170 GeodesicLength=0.5912924523433691 rxn_smarts="[O:1]([C:2]([C:3]([C:4]#[C:5][H:11])([H:9])[H:10])([H:7])[H:8])[H:6]>>[C:4](#[C:5][H:11])[H:6].[O:1]=[C:2]([C:3]([H:8])([H:9])[H:10])[H:7]"
O       -1.19545931      -1.23225976       0.88788686
C       -1.26796710      -0.66545672      -0.27150343
C       -0.47400377       0.57692712      -0.43865456
C        1.18365507      -0.10073025       0.63314280
C        2.29034186       0.34755934       0.46526931
H        0.30334290      -0.87172829       1.12398065
H       -1.27307669      -1.31579905      -1.16333731
H       -2.04870066       0.28763171      -0.56182838
H       -0.18679466       0.85734822      -1.44957442
H       -0.59811196       1.34160136       0.32144631
H        3.26677433       0.77490633       0.45317218
11
Frame=7 idx=002170 GeodesicLength=0.689657427530686 rxn_smarts="[O:1]([C:2]([C:3]([C:4]#[C:5][H:11])([H:9])[H:10])([H:7])[H:8])[H:6]>>[C:4](#[C:5][H:11])[H:6].[O:1]=[C:2]([C:3]([H:8])([H:9])[H:10])[H:7]"
O       -1.16968476      -1.24153350       0.88729064
C       -1.27987745      -0.66872139      -0.26759144
C       -0.48905489       0.57707153      -0.45052691
C        1.19606805      -0.08598860       0.61339822
C        2.30873144       0.35533322       0.47332890
H        0.31108677      -0.88399595       1.11689395
H       -1.30196078      -1.31996501      -1.15844653
H       -2.05366592       0.30945161      -0.55626096
H       -0.21046743       0.84394834      -1.46766564
H       -0.60100302       1.34335264       0.31011644
H        3.28982799       0.77104711       0.49946333
11
Frame=8 idx=002170 GeodesicLength=0.7878368939262661 rxn_smarts="[O:1]([C:2]([C:3]([C:4]#[C:5][H:11])([H:9])[H:10])([H:7])[H:8])[H:6]>>[C:4](#[C:5][H:11])[H:6].[O:1]=[C:2]([C:3]([H:8])([H:9])[H:10])[H:7]"
O       -1.14355961      -1.25020653       0.88622030
C       -1.29198056      -0.67165026      -0.26289263
C       -0.50425258       0.57715971      -0.46257563
C        1.20923474      -0.07111796       0.59135964
C        2.32767684       0.36233849       0.48144423
H        0.31985254      -0.89682216       1.10883364
H       -1.33154468      -1.32408270      -1.15218589
H       -2.05864546       0.33139234      -0.55090699
H       -0.23489896       0.83008839      -1.48589451
H       -0.60325053       1.34512319       0.29839971
H        3.31136826       0.76777747       0.54819814
11
Frame=9 idx=002170 GeodesicLength=0.885622061998283 rxn_smarts="[O:1]([C:2]([C:3]([C:4]#[C:5][H:11])([H:9])[H:10])([H:7])[H:8])[H:6]>>[C:4](#[C:5][H:11])[H:6].[O:1]=[C:2]([C:3]([H:8])([H:9])[H:10])[H:7]"
O       -1.11730751      -1.25848350       0.88428724
C       -1.30405481      -0.67416855      -0.25765492
C       -0.51928642       0.57715312      -0.47452252
C        1.22309637      -0.05674266       0.56793573
C        2.34704175       0.36790100       0.49112382
H        0.32912029      -0.91008311       1.10080760
H       -1.36144590      -1.32786588      -1.14489693
H       -2.06327912       0.35364051      -0.54627843
H       -0.25956273       0.81588990      -1.50379128
H       -0.60465515       1.34673982       0.28658837
H        3.33033323       0.76601936       0.59640131
11
Frame=10 idx=002170 GeodesicLength=0.9835125532680917 rxn_smarts="[O:1]([C:2]([C:3]([C:4]#[C:5][H:11])([H:9])[H:10])([H:7])[H:8])[H:6]>>[C:4](#[C:5][H:11])[H:6].[O:1]=[C:2]([C:3]([H:8])([H:9])[H:10])[H:7]"
O       -1.09031573      -1.26658509       0.88161592
C       -1.31586105      -0.67665406      -0.25184508
C       -0.53485219       0.57742887      -0.48651463
C        1.23744094      -0.04088454       0.54295958
C        2.36624761       0.37423939       0.50179697
H        0.33941264      -0.92313595       1.09244177
H       -1.39102747      -1.33183537      -1.13660079
H       -2.06815922       0.37536236      -0.54223113
H       -0.28531264       0.80188101      -1.52163289
H       -0.60649859       1.34866447       0.27455239
H        3.34892571       0.76151890       0.64545790
11
Frame=11 idx=002170 GeodesicLength=1.0813361516006124 rxn_smarts="[O:1]([C:2]([C:3]([C:4]#[C:5][H:11])([H:9])[H:10])([H:7])[H:8])[H:6]>>[C:4](#[C:5][H:11])[H:6].[O:1]=[C:2]([C:3]([H:8])([H:9])[H:10])[H:7]"
O       -1.06242467      -1.27444141       0.87809120
C       -1.32721429      -0.67911959      -0.24549404
C       -0.55098215       0.57799688      -0.49850733
C        1.25220672      -0.02315001       0.51663438
C        2.38509910       0.38130122       0.51345109
H        0.35080411      -0.93577817       1.08380386
H       -1.42005303      -1.33596329      -1.12729401
H       -2.07331231       0.39644181      -0.53880498
H       -0.31216867       0.78807396      -1.53929648
H       -0.60896870       1.35088410       0.26226116
H        3.36701388       0.75375451       0.69515514
11
Frame=12 idx=002170 GeodesicLength=1.1790628603527515 rxn_smarts="[O:1]([C:2]([C:3]([C:4]#[C:5][H:11])([H:9])[H:10])([H:7])[H:8])[H:6]>>[C:4](#[C:5][H:11])[H:6].[O:1]=[C:2]([C:3]([H:8])([H:9])[H:10])[H:7]"
O       -1.03375533      -1.28201615       0.87365962
C       -1.33801930      -0.68153689      -0.23863201
C       -0.56751491       0.57882782      -0.51042032
C        1.26735540      -0.00355793       0.48929467
C        2.40359046       0.38831053       0.52593708
H        0.36317217      -0.94810912       1.07506474
H       -1.44845092      -1.34019472      -1.11702046
H       -2.07863325       0.41699850      -0.53604501
H       -0.33984863       0.77442246      -1.55665902
H       -0.61195330       1.35339078       0.24977309
H        3.38405762       0.74346472       0.74504760
11
Frame=13 idx=002170 GeodesicLength=1.276640148969777 rxn_smarts="[O:1]([C:2]([C:3]([C:4]#[C:5][H:11])([H:9])[H:10])([H:7])[H:8])[H:6]>>[C:4](#[C:5][H:11])[H:6].[O:1]=[C:2]([C:3]([H:8])([H:9])[H:10])[H:7]"
O       -1.00447548      -1.28923957       0.86832714
C       -1.34827310      -0.68380365      -0.23121611
C       -0.58419616       0.57981899      -0.52222539
C        1.28296169       0.01750783       0.46098586
C        2.42183370       0.39422308       0.53886848
H        0.37642984      -0.96046606       1.06621377
H       -1.47648042      -1.34438744      -1.10572258
H       -2.08393394       0.43733280      -0.53384312
H       -0.36806080       0.76074681      -1.57368552
H       -0.61504221       1.35611436       0.23708971
H        3.39923687       0.73215286       0.79520776
11
Frame=14 idx=002170 GeodesicLength=1.3741051574579684 rxn_smarts="[O:1]([C:2]([C:3]([C:4]#[C:5][H:11])([H:9])[H:10])([H:7])[H:8])[H:6]>>[C:4](#[C:5][H:11])[H:6].[O:1]=[C:2]([C:3]([H:8])([H:9])[H:10])[H:7]"
O       -0.97461942      -1.29617557       0.86198960
C       -1.35772096      -0.68607120      -0.22344885
C       -0.60114110       0.58111305      -0.53373677
C        1.29866062       0.04100660       0.43281425
C        2.43950391       0.39932351       0.55230869
H        0.39037748      -0.97253457       1.05774653
H       -1.50333398      -1.34869302      -1.09367809
H       -2.08931860       0.45708460      -0.53259775
H       -0.39656517       0.74731435      -1.59008357
H       -0.61894089       1.35917905       0.22440425
H        3.41309811       0.71845318       0.84428171
11
Frame=15 idx=002170 GeodesicLength=1.4714822972009471 rxn_smarts="[O:1]([C:2]([C:3]([C:4]#[C:5][H:11])([H:9])[H:10])([H:7])[H:8])[H:6]>>[C:4](#[C:5][H:11])[H:6].[O:1]=[C:2]([C:3]([H:8])([H:9])[H:10])[H:7]"
O       -0.94431854      -1.30282515       0.85461678
C       -1.36624479      -0.68842019      -0.21547914
C       -0.61835602       0.58275871      -0.54482411
C        1.31418442       0.06746865       0.40564243
C        2.45645841       0.40357218       0.56615473
H        0.40481564      -0.98425056       1.05002786
H       -1.52857844      -1.35319929      -1.08111070
H       -2.09484394       0.47610783      -0.53257912
H       -0.42504581       0.73422065      -1.60565898
H       -0.62402762       1.36264376       0.21187130
H        3.42595668       0.70192341       0.89133895
11
Frame=16 idx=002170 GeodesicLength=1.5686846675627462 rxn_smarts="[O:1]([C:2]([C:3]([C:4]#[C:5][H:11])([H:9])[H:10])([H:7])[H:8])[H:6]>>[C:4](#[C:5][H:11])[H:6].[O:1]=[C:2]([C:3]([H:8])([H:9])[H:10])[H:7]"
O       -0.91381362      -1.30914196       0.84627342
C       -1.37400325      -0.69062475      -0.20716315
C       -0.63542022       0.58453535      -0.55552528
C        1.32982431       0.09576686       0.37902249
C        2.47289332       0.40569572       0.57983547
H        0.41968645      -0.99639842       1.04279392
H       -1.55303146      -1.35756271      -1.06783534
H       -2.10015498       0.49501732      -0.53343356
H       -0.45317984       0.72112148      -1.62049680
H       -0.62936557       1.36628661       0.19945522
H        3.43656486       0.68530449       0.93707361
