17
Frame=0 idx=011653 GeodesicLength=0.0 rxn_smarts="[O:1]([C:2]([C@@:3]1([H:11])[C:4]([H:12])([H:13])[C:5]([H:14])([H:15])[O:6][C:7]1([H:16])[H:17])([H:9])[H:10])[H:8]>>[O:1](/[C:2](=[C:3](/[C:4]([C:5]([O:6][C:7]([H:9])([H:16])[H:17])([H:14])[H:15])([H:12])[H:13])[H:11])[H:10])[H:8]"
O        2.82654761      -0.27725579       0.83359093
C        1.50522569      -0.56320312       0.38288624
C        0.57351069       0.38650660       0.99457472
C       -0.41214015       1.16315730       0.29947311
C       -1.87455478       0.56217599       0.04553247
O       -1.73613711      -0.71138519      -0.48048739
C       -0.79747336      -0.89678653      -1.40551444
H        3.32106909      -1.09624060       0.89136919
H        1.37429273      -0.48532268      -0.72704424
H        1.27738406      -1.61561402       0.59954968
H        0.76817688       0.60906620       2.03995623
H       -0.59204910       2.12986577       0.78021343
H       -0.06158148       1.27806193      -0.74196913
H       -2.37422092       1.24368050      -0.65005211
H       -2.46047414       0.46973962       0.96006418
H       -0.81171372      -0.25937794      -2.28869743
H       -0.52586191      -1.93706807      -1.53344539
17
Frame=1 idx=011653 GeodesicLength=0.11385618723614223 rxn_smarts="[O:1]([C:2]([C@@:3]1([H:11])[C:4]([H:12])([H:13])[C:5]([H:14])([H:15])[O:6][C:7]1([H:16])[H:17])([H:9])[H:10])[H:8]>>[O:1](/[C:2](=[C:3](/[C:4]([C:5]([O:6][C:7]([H:9])([H:16])[H:17])([H:14])[H:15])([H:12])[H:13])[H:11])[H:10])[H:8]"
O        2.82194219      -0.25674079       0.82572366
C        1.50690514      -0.56892718       0.38145096
C        0.55376266       0.35658049       0.98916882
C       -0.41341130       1.16714060       0.29915884
C       -1.87235589       0.57413588       0.04064460
O       -1.74244022      -0.70301447      -0.48326961
C       -0.77698129      -0.89804910      -1.38510934
H        3.33441665      -1.06487851       0.87975633
H        1.34583522      -0.50573065      -0.75006335
H        1.29448913      -1.62312723       0.60556303
H        0.74516021       0.57582892       2.03640753
H       -0.58346947       2.12631540       0.79754430
H       -0.05395696       1.30252453      -0.73594468
H       -2.37067308       1.25324160      -0.65834227
H       -2.46106322       0.48604600       0.95421555
H       -0.78744916      -0.27422059      -2.27863942
H       -0.54071063      -1.94712489      -1.51826496
17
Frame=2 idx=011653 GeodesicLength=0.22775122738866238 rxn_smarts="[O:1]([C:2]([C@@:3]1([H:11])[C:4]([H:12])([H:13])[C:5]([H:14])([H:15])[O:6][C:7]1([H:16])[H:17])([H:9])[H:10])[H:8]>>[O:1](/[C:2](=[C:3](/[C:4]([C:5]([O:6][C:7]([H:9])([H:16])[H:17])([H:14])[H:15])([H:12])[H:13])[H:11])[H:10])[H:8]"
O        2.81684896      -0.23728726       0.82015936
C        1.50893320      -0.57390483       0.37996633
C        0.53505622       0.32807161       0.98230419
C       -0.41430954       1.17098350       0.29835163
C       -1.86977638       0.58542144       0.03632899
O       -1.74830651      -0.69513704      -0.48578661
C       -0.75786274      -0.89956066      -1.36515224
H        3.34625228      -1.03472536       0.87008801
H        1.31888429      -0.52530366      -0.77348511
H        1.31068582      -1.62966641       0.61035622
H        0.72224741       0.54346493       2.03170483
H       -0.57465299       2.12249820       0.81373505
H       -0.04634649       1.32631945      -0.73011878
H       -2.36754805       1.26210460      -0.66550786
H       -2.46048871       0.50133150       0.94939084
H       -0.76483478      -0.28887516      -2.26841414
H       -0.55478200      -1.95573486      -1.50392069
17
Frame=3 idx=011653 GeodesicLength=0.3416317468037398 rxn_smarts="[O:1]([C:2]([C@@:3]1([H:11])[C:4]([H:12])([H:13])[C:5]([H:14])([H:15])[O:6][C:7]1([H:16])[H:17])([H:9])[H:10])[H:8]>>[O:1](/[C:2](=[C:3](/[C:4]([C:5]([O:6][C:7]([H:9])([H:16])[H:17])([H:14])[H:15])([H:12])[H:13])[H:11])[H:10])[H:8]"
O        2.81135594      -0.21892362       0.81675936
C        1.51125719      -0.57818959       0.37852076
C        0.51736912       0.30096442       0.97413677
C       -0.41488475       1.17471785       0.29708397
C       -1.86685665       0.59605956       0.03254532
O       -1.75373249      -0.68774254      -0.48802987
C       -0.73996877      -0.90128488      -1.34565839
H        3.35673335      -1.00582086       0.86216350
H        1.29331787      -0.54398641      -0.79738823
H        1.32591933      -1.63531072       0.61409118
H        0.69949051       0.51204760       2.02592525
H       -0.56565323       2.11845150       0.82885993
H       -0.03878789       1.34954594      -0.72447872
H       -2.36485548       1.27028398      -0.67162354
H       -2.45884626       0.51563522       0.94552274
H       -0.74378314      -0.30333804      -2.25809943
H       -0.56807464      -1.96310941      -1.49033062
17
Frame=4 idx=011653 GeodesicLength=0.4554538417285253 rxn_smarts="[O:1]([C:2]([C@@:3]1([H:11])[C:4]([H:12])([H:13])[C:5]([H:14])([H:15])[O:6][C:7]1([H:16])[H:17])([H:9])[H:10])[H:8]>>[O:1](/[C:2](=[C:3](/[C:4]([C:5]([O:6][C:7]([H:9])([H:16])[H:17])([H:14])[H:15])([H:12])[H:13])[H:11])[H:10])[H:8]"
O        2.80553542      -0.20166856       0.81538929
C        1.51382717      -0.58184380       0.37719752
C        0.50067828       0.27523886       0.96480348
C       -0.41517994       1.17837069       0.29538518
C       -1.86362533       0.60606756       0.02925779
O       -1.75870649      -0.68082849      -0.48999449
C       -0.72315839      -0.90318297      -1.32664531
H        3.36597765      -0.97820137       0.85583017
H        1.26901312      -0.56172514      -0.82185268
H        1.34014285      -1.64014028       0.61691939
H        0.67696971       0.48167310       2.01914564
H       -0.55652658       2.11420431       0.84298064
H       -0.03131904       1.37229246      -0.71900934
H       -2.36259524       1.27778114      -0.67675095
H       -2.45620959       0.52898666       0.94254824
H       -0.72423070      -0.31760288      -2.24776609
H       -0.58059287      -1.96942130      -1.47743848
17
Frame=5 idx=011653 GeodesicLength=0.5692311745796939 rxn_smarts="[O:1]([C:2]([C@@:3]1([H:11])[C:4]([H:12])([H:13])[C:5]([H:14])([H:15])[O:6][C:7]1([H:16])[H:17])([H:9])[H:10])[H:8]>>[O:1](/[C:2](=[C:3](/[C:4]([C:5]([O:6][C:7]([H:9])([H:16])[H:17])([H:14])[H:15])([H:12])[H:13])[H:11])[H:10])[H:8]"
O        2.79946701      -0.18552414       0.81592576
C        1.51659293      -0.58493441       0.37608486
C        0.48494819       0.25085803       0.95445409
C       -0.41523388       1.18196416       0.29327689
C       -1.86011796       0.61547312       0.02642509
O       -1.76323335      -0.67438238      -0.49167637
C       -0.70730037      -0.90522408      -1.30811988
H        3.37415277      -0.95185524       0.85090010
H        1.24583001      -0.57848165      -0.84696579
H        1.35333060      -1.64425575       0.61899802
H        0.65471043       0.45238387       2.01145070
H       -0.54730392       2.10979296       0.85615776
H       -0.02395735       1.39463854      -0.71369235
H       -2.36076890       1.28461447      -0.68096528
H       -2.45266699       0.54143004       0.94039965
H       -0.70610562      -0.33167606      -2.23747728
H       -0.59234359      -1.97482150      -1.46517595
17
Frame=6 idx=011653 GeodesicLength=0.6829277776871027 rxn_smarts="[O:1]([C:2]([C@@:3]1([H:11])[C:4]([H:12])([H:13])[C:5]([H:14])([H:15])[O:6][C:7]1([H:16])[H:17])([H:9])[H:10])[H:8]>>[O:1](/[C:2](=[C:3](/[C:4]([C:5]([O:6][C:7]([H:9])([H:16])[H:17])([H:14])[H:15])([H:12])[H:13])[H:11])[H:10])[H:8]"
O        2.79319929      -0.17048838       0.81826074
C        1.51952419      -0.58751878       0.37524875
C        0.47015495       0.22778803       0.94319681
C       -0.41507727       1.18551951       0.29077924
C       -1.85635232       0.62429698       0.02401657
O       -1.76730521      -0.66840240      -0.49306448
C       -0.69228201      -0.90737794      -1.29008751
H        3.38134962      -0.92678192       0.84728306
H        1.22365056      -0.59420948      -0.87281547
H        1.36548085      -1.64773771       0.62042943
H        0.63275828       0.42422858       2.00290748
H       -0.53802172       2.10524436       0.86843389
H       -0.01672465       1.41664489      -0.70851340
H       -2.35936506       1.29078789      -0.68431849
H       -2.44827282       0.55300319       0.93902220
H       -0.68938016      -0.34556495      -2.22728436
H       -0.60333652      -1.97943187      -1.45349447
17
Frame=7 idx=011653 GeodesicLength=0.7965843800372516 rxn_smarts="[O:1]([C:2]([C@@:3]1([H:11])[C:4]([H:12])([H:13])[C:5]([H:14])([H:15])[O:6][C:7]1([H:16])[H:17])([H:9])[H:10])[H:8]>>[O:1](/[C:2](=[C:3](/[C:4]([C:5]([O:6][C:7]([H:9])([H:16])[H:17])([H:14])[H:15])([H:12])[H:13])[H:11])[H:10])[H:8]"
O        2.78678121      -0.15655403       0.82230757
C        1.52258547      -0.58966167       0.37476952
C        0.45626371       0.20598551       0.93115029
C       -0.41473200       1.18905547       0.28791331
C       -1.85235139       0.63256252       0.02199789
O       -1.77092556      -0.66288379      -0.49415070
C       -0.67799177      -0.90961399      -1.27255107
H        3.38771233      -0.90294352       0.84484162
H        1.20233735      -0.60887381      -0.89950208
H        1.37659278      -1.65068335       0.62133420
H        0.61112609       0.39722591       1.99359344
H       -0.52869949       2.10059271       0.87984485
H       -0.00962403       1.43836818      -0.70345635
H       -2.35837620       1.29631452      -0.68687487
H       -2.44309392       0.56374826       0.93835616
H       -0.67402380      -0.35927946      -2.21723754
H       -0.61358080      -1.98335946      -1.44233624
17
Frame=8 idx=011653 GeodesicLength=0.9101651040018008 rxn_smarts="[O:1]([C:2]([C@@:3]1([H:11])[C:4]([H:12])([H:13])[C:5]([H:14])([H:15])[O:6][C:7]1([H:16])[H:17])([H:9])[H:10])[H:8]>>[O:1](/[C:2](=[C:3](/[C:4]([C:5]([O:6][C:7]([H:9])([H:16])[H:17])([H:14])[H:15])([H:12])[H:13])[H:11])[H:10])[H:8]"
O        2.78025106      -0.14370578       0.82797927
C        1.52575451      -0.59141981       0.37470607
C        0.44324665       0.18540552       0.91840787
C       -0.41422073       1.19258673       0.28468668
C       -1.84813152       0.64029129       0.02033999
O       -1.77409287      -0.65782408      -0.49492197
C       -0.66433767      -0.91190942      -1.25551422
H        3.39332270      -0.88031121       0.84350484
H        1.18177083      -0.62243866      -0.92711474
H        1.38668901      -1.65317271       0.62179680
H        0.58983591       0.37139660       1.98357303
H       -0.51935222       2.09586313       0.89042709
H       -0.00266155       1.45985292      -0.69850636
H       -2.35779065       1.30120152      -0.68868185
H       -2.43717742       0.57370694       0.93835243
H       -0.66002422      -0.37283246      -2.20738377
H       -0.62308183      -1.98669052      -1.43165115
17
Frame=9 idx=011653 GeodesicLength=1.0237362182913012 rxn_smarts="[O:1]([C:2]([C@@:3]1([H:11])[C:4]([H:12])([H:13])[C:5]([H:14])([H:15])[O:6][C:7]1([H:16])[H:17])([H:9])[H:10])[H:8]>>[O:1](/[C:2](=[C:3](/[C:4]([C:5]([O:6][C:7]([H:9])([H:16])[H:17])([H:14])[H:15])([H:12])[H:13])[H:11])[H:10])[H:8]"
O        2.77364285      -0.13193568       0.83519243
C        1.52899765      -0.59285097       0.37512814
C        0.43109196       0.16602713       0.90505951
C       -0.41354957       1.19612853       0.28111402
C       -1.84369838       0.64750062       0.01901843
O       -1.77678699      -0.65321938      -0.49536211
C       -0.65122006      -0.91423132      -1.23898796
H        3.39829353      -0.85883673       0.84318299
H        1.16179327      -0.63488625      -0.95577108
H        1.39576318      -1.65527375       0.62195297
H        0.56886728       0.34672030       1.97290621
H       -0.50999358       2.09107747       0.90020012
H        0.00416080       1.48114243      -0.69365329
H       -2.35759301       1.30545158      -0.68978250
H       -2.43055951       0.58291540       0.93896618
H       -0.64738419      -0.38623709      -2.19776478
H       -0.63182523      -1.98949228      -1.42139928
17
Frame=10 idx=011653 GeodesicLength=1.1373166314003489 rxn_smarts="[O:1]([C:2]([C@@:3]1([H:11])[C:4]([H:12])([H:13])[C:5]([H:14])([H:15])[O:6][C:7]1([H:16])[H:17])([H:9])[H:10])[H:8]>>[O:1](/[C:2](=[C:3](/[C:4]([C:5]([O:6][C:7]([H:9])([H:16])[H:17])([H:14])[H:15])([H:12])[H:13])[H:11])[H:10])[H:8]"
O        2.76698341      -0.12121724       0.84389777
C        1.53230677      -0.59402275       0.37610586
C        0.41975386       0.14777323       0.89118903
C       -0.41273648       1.19968934       0.27720310
C       -1.83906728       0.65421450       0.01800190
O       -1.77901951      -0.64907026      -0.49545962
C       -0.63855586      -0.91655365      -1.22297441
H        3.40270477      -0.83846134       0.84381881
H        1.14227685      -0.64616483      -0.98557331
H        1.40386907      -1.65708916       0.62184883
H        0.54825332       0.32322485       1.96166139
H       -0.50062700       2.08626015       0.90919537
H        0.01085595       1.50226763      -0.68887996
H       -2.35776785       1.30907855      -0.69023120
H       -2.42329048       0.59142115       0.94014356
H       -0.63611786      -0.39951805      -2.18842480
H       -0.63982170      -1.99183211      -1.41152233
17
Frame=11 idx=011653 GeodesicLength=1.2509042465177573 rxn_smarts="[O:1]([C:2]([C@@:3]1([H:11])[C:4]([H:12])([H:13])[C:5]([H:14])([H:15])[O:6][C:7]1([H:16])[H:17])([H:9])[H:10])[H:8]>>[O:1](/[C:2](=[C:3](/[C:4]([C:5]([O:6][C:7]([H:9])([H:16])[H:17])([H:14])[H:15])([H:12])[H:13])[H:11])[H:10])[H:8]"
O        2.76029803      -0.11152619       0.85406739
C        1.53567487      -0.59498686       0.37769723
C        0.40920211       0.13058093       0.87686819
C       -0.41178780       1.20327833       0.27295612
C       -1.83424797       0.66045886       0.01726257
O       -1.78080044      -0.64537715      -0.49519572
C       -0.62626847      -0.91884930      -1.20748069
H        3.40666797      -0.81909447       0.84536856
H        1.12308866      -0.65625241      -1.01662627
H        1.41105322      -1.65870298       0.62153297
H        0.52796924       0.30087155       1.94989358
H       -0.49123762       2.08143850       0.91743906
H        0.01743672       1.52325579      -0.68417683
H       -2.35829630       1.31209668      -0.69007727
H       -2.41540676       0.59927881       0.94183845
H       -0.62626497      -0.41269945      -2.17940998
H       -0.64708049      -1.99377065      -1.40195735
17
Frame=12 idx=011653 GeodesicLength=1.3645366066218232 rxn_smarts="[O:1]([C:2]([C@@:3]1([H:11])[C:4]([H:12])([H:13])[C:5]([H:14])([H:15])[O:6][C:7]1([H:16])[H:17])([H:9])[H:10])[H:8]>>[O:1](/[C:2](=[C:3](/[C:4]([C:5]([O:6][C:7]([H:9])([H:16])[H:17])([H:14])[H:15])([H:12])[H:13])[H:11])[H:10])[H:8]"
O        2.75360482      -0.10284009       0.86565899
C        1.53909665      -0.59579225       0.37995837
C        0.39942478       0.11441103       0.86214328
C       -0.41070525       1.20690513       0.26837554
C       -1.82923990       0.66624583       0.01678302
O       -1.78211355      -0.64214683      -0.49454665
C       -0.61427495      -0.92108221      -1.19252801
H        3.41021788      -0.80070160       0.84783433
H        1.10407014      -0.66510820      -1.04905439
H        1.41735365      -1.66017922       0.62107862
H        0.50802512       0.27965502       1.93764297
H       -0.48182676       2.07663089       0.92494307
H        0.02391316       1.54413302      -0.67953708
H       -2.35916434       1.31450189      -0.68934963
H       -2.40692528       0.60651930       0.94401965
H       -0.61788042      -0.42580438      -2.17076307
H       -0.65357573      -1.99534735      -1.39265900
17
Frame=13 idx=011653 GeodesicLength=1.4782232658214314 rxn_smarts="[O:1]([C:2]([C@@:3]1([H:11])[C:4]([H:12])([H:13])[C:5]([H:14])([H:15])[O:6][C:7]1([H:16])[H:17])([H:9])[H:10])[H:8]>>[O:1](/[C:2](=[C:3](/[C:4]([C:5]([O:6][C:7]([H:9])([H:16])[H:17])([H:14])[H:15])([H:12])[H:13])[H:11])[H:10])[H:8]"
O        2.74691144      -0.09514715       0.87865821
C        1.54256972      -0.59648740       0.38294587
C        0.39040530       0.09921256       0.84706400
C       -0.40948426       1.21058017       0.26345930
C       -1.82404302       0.67159644       0.01654027
O       -1.78295428      -0.63938465      -0.49348516
C       -0.60250002      -0.92321498      -1.17813661
H        3.41344943      -0.78318736       0.85119880
H        1.08506071      -0.67270103      -1.08297215
H        1.42281616      -1.66159098       0.62054297
H        0.48838200       0.25951815       1.92494528
H       -0.47237332       2.07185867       0.93172464
H        0.03030519       1.56492154      -0.67495536
H       -2.36035328       1.31629891      -0.68808944
H       -2.39786607       0.61319168       0.94664938
H       -0.61103526      -0.43885971      -2.16253046
H       -0.65929043      -1.99660487      -1.38355954
17
Frame=14 idx=011653 GeodesicLength=1.5919477860467344 rxn_smarts="[O:1]([C:2]([C@@:3]1([H:11])[C:4]([H:12])([H:13])[C:5]([H:14])([H:15])[O:6][C:7]1([H:16])[H:17])([H:9])[H:10])[H:8]>>[O:1](/[C:2](=[C:3](/[C:4]([C:5]([O:6][C:7]([H:9])([H:16])[H:17])([H:14])[H:15])([H:12])[H:13])[H:11])[H:10])[H:8]"
O        2.74022537      -0.08842212       0.89306158
C        1.54609747      -0.59711258       0.38670738
C        0.38214034       0.08494362       0.83165443
C       -0.40811990       1.21431059       0.25820233
C       -1.81865080       0.67652256       0.01652195
O       -1.78330761      -0.63710386      -0.49197706
C       -0.59087365      -0.92520565      -1.16434038
H        3.41638944      -0.76649930       0.85551500
H        1.06590736      -0.67900154      -1.11850503
H        1.42749217      -1.66298476       0.61995680
H        0.46903613       0.24043519       1.91182508
H       -0.46286074       2.06713658       0.93779302
H        0.03662729       1.58563748      -0.67043411
H       -2.36184702       1.31747998      -0.68631681
H       -2.38822962       0.61933199       0.94970616
H       -0.60582462      -0.45189279      -2.15476471
H       -0.66420159      -1.99757540      -1.37460566
17
Frame=15 idx=011653 GeodesicLength=1.7056905697441709 rxn_smarts="[O:1]([C:2]([C@@:3]1([H:11])[C:4]([H:12])([H:13])[C:5]([H:14])([H:15])[O:6][C:7]1([H:16])[H:17])([H:9])[H:10])[H:8]>>[O:1](/[C:2](=[C:3](/[C:4]([C:5]([O:6][C:7]([H:9])([H:16])[H:17])([H:14])[H:15])([H:12])[H:13])[H:11])[H:10])[H:8]"
O        2.73354649      -0.08265251       0.90888210
C        1.54968649      -0.59770498       0.39129017
C        0.37462580       0.07155807       0.81593675
C       -0.40660260       1.21810515       0.25259539
C       -1.81305680       0.68103904       0.01671250
O       -1.78316375      -0.63531915      -0.48998367
C       -0.57932087      -0.92700531      -1.15118029
H        3.41909303      -0.75055605       0.86082131
H        1.04643792      -0.68398073      -1.15577062
H        1.43143998      -1.66441664       0.61935518
H        0.44995704       0.22234953       1.89829906
H       -0.45326110       2.06248488       0.94315859
H        0.04290112       1.60629856      -0.66597455
H       -2.36362914       1.31803952      -0.68406105
H       -2.37801775       0.62498384       0.95316650
H       -0.60235719      -0.46493164      -2.14752009
H       -0.66827867      -1.99829155      -1.36572728
17
Frame=16 idx=011653 GeodesicLength=1.8194198306523053 rxn_smarts="[O:1]([C:2]([C@@:3]1([H:11])[C:4]([H:12])([H:13])[C:5]([H:14])([H:15])[O:6][C:7]1([H:16])[H:17])([H:9])[H:10])[H:8]>>[O:1](/[C:2](=[C:3](/[C:4]([C:5]([O:6][C:7]([H:9])([H:16])[H:17])([H:14])[H:15])([H:12])[H:13])[H:11])[H:10])[H:8]"
O        2.72686943      -0.07782557       0.92614363
C        1.55334604      -0.59829620       0.39673542
C        0.36787225       0.05902152       0.79991438
C       -0.40492041       1.22197282       0.24662699
C       -1.80724710       0.68515621       0.01710232
O       -1.78249647      -0.63404966      -0.48745775
C       -0.56777044      -0.92855773      -1.13871088
H        3.42158905      -0.73529112       0.86719510
H        1.02646802      -0.68761061      -1.19489413
H        1.43470919      -1.66592679       0.61876834
H        0.43112362       0.20520897       1.88436935
H       -0.44354902       2.05791720       0.94782512
H        0.04914592       1.62691783      -0.66158395
H       -2.36568334       1.31796223      -0.68133760
H       -2.36721679       0.63018448       0.95701562
H       -0.60076096      -0.47800714      -2.14085161
H       -0.67147900      -1.99877644      -1.35686034
