11
Frame=0 idx=001760 GeodesicLength=0.0 rxn_smarts="[N:1]([c:2]1[c:3]([H:9])[n:4]([H:10])[n:5][c:6]1[H:11])([H:7])[H:8]>>[H:7][H:10].[N:1](=[C:2]1[C:3]([H:9])=[N:4][N:5]=[C:6]1[H:11])[H:8]"
N       -1.45499845      -0.24469924       0.14997305
C       -0.48292368       0.19292662      -0.70058765
C        0.60175331      -0.68296852      -0.80410343
N        1.49462480      -0.27655163       0.10305071
N        1.25789019       1.16055616       0.33353751
C        0.12834276       1.42724134      -0.19395889
H       -0.60471358      -0.45889485       1.14048277
H       -1.69037039      -1.22376356      -0.02157777
H        0.54619182      -1.73581337      -1.05050159
H        0.53510807      -0.56115273       1.15678087
H       -0.33090488       2.40311979      -0.11309559
11
Frame=1 idx=001760 GeodesicLength=0.07910579781288879 rxn_smarts="[N:1]([c:2]1[c:3]([H:9])[n:4]([H:10])[n:5][c:6]1[H:11])([H:7])[H:8]>>[H:7][H:10].[N:1](=[C:2]1[C:3]([H:9])=[N:4][N:5]=[C:6]1[H:11])[H:8]"
N       -1.46060952      -0.24495645       0.14855587
C       -0.48600886       0.19192496      -0.69816730
C        0.60525007      -0.68051758      -0.80650581
N        1.49277393      -0.27266711       0.10448170
N        1.26459735       1.16324187       0.31963577
C        0.13133024       1.42831792      -0.20503229
H       -0.61292962      -0.46290795       1.15975664
H       -1.70331577      -1.21997242      -0.03286466
H        0.55434992      -1.73267904      -1.05661293
H        0.54727565      -0.57044494       1.17694557
H       -0.33271339       2.40066074      -0.11019255
11
Frame=2 idx=001760 GeodesicLength=0.1581822980594552 rxn_smarts="[N:1]([c:2]1[c:3]([H:9])[n:4]([H:10])[n:5][c:6]1[H:11])([H:7])[H:8]>>[H:7][H:10].[N:1](=[C:2]1[C:3]([H:9])=[N:4][N:5]=[C:6]1[H:11])[H:8]"
N       -1.46625693      -0.24527544       0.14711726
C       -0.48911119       0.19094409      -0.69569517
C        0.60876792      -0.67796333      -0.80900278
N        1.49070715      -0.26870881       0.10605338
N        1.27120640       1.16592317       0.30556168
C        0.13418715       1.42939443      -0.21621545
H       -0.62139750      -0.46704061       1.17938490
H       -1.71640795      -1.21600069      -0.04440219
H        0.56257643      -1.72942008      -1.06277171
H        0.56008188      -0.57998785       1.19742361
H       -0.33435337       2.39813513      -0.10745355
11
Frame=3 idx=001760 GeodesicLength=0.23723973129192322 rxn_smarts="[N:1]([c:2]1[c:3]([H:9])[n:4]([H:10])[n:5][c:6]1[H:11])([H:7])[H:8]>>[H:7][H:10].[N:1](=[C:2]1[C:3]([H:9])=[N:4][N:5]=[C:6]1[H:11])[H:8]"
N       -1.47194424      -0.24565850       0.14565275
C       -0.49223152       0.18998393      -0.69317029
C        0.61230656      -0.67530453      -0.81158944
N        1.48841190      -0.26466909       0.10777451
N        1.27771466       1.16859963       0.29130864
C        0.13690781       1.43047088      -0.22750774
H       -0.63013774      -0.47129880       1.19938230
H       -1.72966080      -1.21182702      -0.05621433
H        0.57087311      -1.72603706      -1.06896392
H        0.57358917      -0.58980652       1.21821800
H       -0.33582892       2.39554708      -0.10489050
11
Frame=4 idx=001760 GeodesicLength=0.3162911239138315 rxn_smarts="[N:1]([c:2]1[c:3]([H:9])[n:4]([H:10])[n:5][c:6]1[H:11])([H:7])[H:8]>>[H:7][H:10].[N:1](=[C:2]1[C:3]([H:9])=[N:4][N:5]=[C:6]1[H:11])[H:8]"
N       -1.47767565      -0.24610547       0.14415480
C       -0.49536895       0.18904419      -0.69059321
C        0.61586657      -0.67254127      -0.81426000
N        1.48587641      -0.26053951       0.10965071
N        1.28412000       1.17127081       0.27686784
C        0.13948897       1.43154679      -0.23891086
H       -0.63917497      -0.47568642       1.21976350
H       -1.74308704      -1.20743134      -0.06832341
H        0.57924182      -1.72253227      -1.07517326
H        0.58786103      -0.59992921       1.23933381
H       -0.33714818       2.39290371      -0.10250992
11
Frame=5 idx=001760 GeodesicLength=0.3953390348741713 rxn_smarts="[N:1]([c:2]1[c:3]([H:9])[n:4]([H:10])[n:5][c:6]1[H:11])([H:7])[H:8]>>[H:7][H:10].[N:1](=[C:2]1[C:3]([H:9])=[N:4][N:5]=[C:6]1[H:11])[H:8]"
N       -1.48345558      -0.24661938       0.14261892
C       -0.49852592       0.18812623      -0.68796302
C        0.61944680      -0.66967037      -0.81700906
N        1.48308823      -0.25630696       0.11168509
N        1.29041622       1.17393442       0.26224298
C        0.14192238       1.43262202      -0.25041772
H       -0.64853118      -0.48021364       1.24054253
H       -1.75670127      -1.20279285      -0.08074957
H        0.58768519      -1.71890497      -1.08138482
H        0.60296275      -0.61038470       1.26077270
H       -0.33830763       2.39021021      -0.10033802
11
Frame=6 idx=001760 GeodesicLength=0.47439703665924154 rxn_smarts="[N:1]([c:2]1[c:3]([H:9])[n:4]([H:10])[n:5][c:6]1[H:11])([H:7])[H:8]>>[H:7][H:10].[N:1](=[C:2]1[C:3]([H:9])=[N:4][N:5]=[C:6]1[H:11])[H:8]"
N       -1.48929154      -0.24720009       0.14103580
C       -0.50170403       0.18723031      -0.68528044
C        0.62304552      -0.66669267      -0.81982635
N        1.48003273      -0.25196434       0.11389238
N        1.29659737       1.17658912       0.24742945
C        0.14420163       1.43369649      -0.26202865
H       -0.65823758      -0.48488364       1.26173632
H       -1.77051806      -1.19788567      -0.09352164
H        0.59620407      -1.71515760      -1.08757952
H        0.61898554      -0.62120511       1.28253108
H       -0.33931566       2.38747320      -0.09838843
11
Frame=7 idx=001760 GeodesicLength=0.5534736587400984 rxn_smarts="[N:1]([c:2]1[c:3]([H:9])[n:4]([H:10])[n:5][c:6]1[H:11])([H:7])[H:8]>>[H:7][H:10].[N:1](=[C:2]1[C:3]([H:9])=[N:4][N:5]=[C:6]1[H:11])[H:8]"
N       -1.49518982      -0.24784777       0.13939386
C       -0.50490292       0.18635541      -0.68254871
C        0.62666279      -0.66361013      -0.82270308
N        1.47669836      -0.24749923       0.11627462
N        1.30265754       1.17923142       0.23242761
C        0.14632350       1.43476870      -0.27374752
H       -0.66833243      -0.48969810       1.28335683
H       -1.78455338      -1.19268225      -0.10666312
H        0.60480119      -1.71129782      -1.09373072
H        0.63601855      -0.63242042       1.30460569
H       -0.34018339       2.38470019      -0.09666545
11
Frame=8 idx=001760 GeodesicLength=0.6325715041686876 rxn_smarts="[N:1]([c:2]1[c:3]([H:9])[n:4]([H:10])[n:5][c:6]1[H:11])([H:7])[H:8]>>[H:7][H:10].[N:1](=[C:2]1[C:3]([H:9])=[N:4][N:5]=[C:6]1[H:11])[H:8]"
N       -1.50115996      -0.24856032       0.13768060
C       -0.50812486       0.18550201      -0.67977000
C        0.63029671      -0.66042521      -0.82562331
N        1.47306869      -0.24290281       0.11884897
N        1.30858847       1.18185946       0.21723658
C        0.14828200       1.43583824      -0.28557508
H       -0.67884966      -0.49465825       1.30542110
H       -1.79882191      -1.18715498      -0.12020143
H        0.61347853      -1.70732839      -1.09981661
H        0.65416310      -0.64407039       1.32698537
H       -0.34092111       2.38190065      -0.09518618
11
Frame=9 idx=001760 GeodesicLength=0.7117061775779819 rxn_smarts="[N:1]([c:2]1[c:3]([H:9])[n:4]([H:10])[n:5][c:6]1[H:11])([H:7])[H:8]>>[H:7][H:10].[N:1](=[C:2]1[C:3]([H:9])=[N:4][N:5]=[C:6]1[H:11])[H:8]"
N       -1.50721881      -0.24933915       0.13588858
C       -0.51138230       0.18468164      -0.67693418
C        0.63393751      -0.65712322      -0.82857463
N        1.46912755      -0.23814911       0.12161146
N        1.31436746       1.18446686       0.20190478
C        0.15005319       1.43690609      -0.29745758
H       -0.68983986      -0.49979571       1.32794670
H       -1.81333898      -1.18128983      -0.13415247
H        0.62223562      -1.70323844      -1.10581772
H        0.67354777      -0.65620427       1.34964977
H       -0.34148914       2.37908513      -0.09406470
11
Frame=10 idx=001760 GeodesicLength=0.7908667608437819 rxn_smarts="[N:1]([c:2]1[c:3]([H:9])[n:4]([H:10])[n:5][c:6]1[H:11])([H:7])[H:8]>>[H:7][H:10].[N:1](=[C:2]1[C:3]([H:9])=[N:4][N:5]=[C:6]1[H:11])[H:8]"
N       -1.51337023      -0.25018146       0.13399426
C       -0.51466795       0.18388298      -0.67406008
C        0.63759098      -0.65372415      -0.83153797
N        1.46486069      -0.23323899       0.12458816
N        1.31999257       1.18705111       0.18640812
C        0.15164837       1.43796926      -0.30945165
H       -0.70134394      -0.50508174       1.35094399
H       -1.82812430      -1.17503322      -0.14855099
H        0.63107755      -1.69905224      -1.11169340
H        0.69428441      -0.66885292       1.37258571
H       -0.34194812       2.37626136      -0.09322615
11
Frame=11 idx=001760 GeodesicLength=0.8700517487633659 rxn_smarts="[N:1]([c:2]1[c:3]([H:9])[n:4]([H:10])[n:5][c:6]1[H:11])([H:7])[H:8]>>[H:7][H:10].[N:1](=[C:2]1[C:3]([H:9])=[N:4][N:5]=[C:6]1[H:11])[H:8]"
N       -1.51962986      -0.25108206       0.13197852
C       -0.51798671       0.18310822      -0.67115255
C        0.64125263      -0.65023156      -0.83449138
N        1.46024961      -0.22816114       0.12779562
N        1.32544715       1.18960558       0.17076984
C        0.15306047       1.43902662      -0.32155681
H       -0.71342044      -0.51051461       1.37442590
H       -1.84319380      -1.16835702      -0.16342278
H        0.64000491      -1.69477585      -1.11741189
H        0.71652177      -0.68205948       1.39576514
H       -0.34230573       2.37344130      -0.09269961
11
Frame=12 idx=001760 GeodesicLength=0.9492546530305027 rxn_smarts="[N:1]([c:2]1[c:3]([H:9])[n:4]([H:10])[n:5][c:6]1[H:11])([H:7])[H:8]>>[H:7][H:10].[N:1](=[C:2]1[C:3]([H:9])=[N:4][N:5]=[C:6]1[H:11])[H:8]"
N       -1.52601128      -0.25204040       0.12982128
C       -0.52134318       0.18235628      -0.66821766
C        0.64492013      -0.64665095      -0.83741096
N        1.45527469      -0.22290262       0.13125600
N        1.33071286       1.19212560       0.15501221
C        0.15428279       1.44007573      -0.33377993
H       -0.72612526      -0.51609100       1.39840793
H       -1.85856793      -1.16121400      -0.17879822
H        0.64902122      -1.69041922      -1.12293356
H        0.74041545      -0.69587594       1.41915268
H       -0.34257948       2.37063653      -0.09250977
11
Frame=13 idx=001760 GeodesicLength=1.0284659816116308 rxn_smarts="[N:1]([c:2]1[c:3]([H:9])[n:4]([H:10])[n:5][c:6]1[H:11])([H:7])[H:8]>>[H:7][H:10].[N:1](=[C:2]1[C:3]([H:9])=[N:4][N:5]=[C:6]1[H:11])[H:8]"
N       -1.53253433      -0.25304616       0.12749866
C       -0.52474445       0.18163193      -0.66526216
C        0.64858729      -0.64298506      -0.84027241
N        1.44991495      -0.21745052       0.13498360
N        1.33576762       1.19460149       0.13917889
C        0.15530964       1.44111559      -0.34611819
H       -0.73952417      -0.52181247       1.42289963
H       -1.87426086      -1.15357916      -0.19469819
H        0.65812534      -1.68598956      -1.12821968
H        0.76613326      -0.71034719       1.44270992
H       -0.34277429       2.36786112      -0.09270007
11
Frame=14 idx=001760 GeodesicLength=1.107675243615587 rxn_smarts="[N:1]([c:2]1[c:3]([H:9])[n:4]([H:10])[n:5][c:6]1[H:11])([H:7])[H:8]>>[H:7][H:10].[N:1](=[C:2]1[C:3]([H:9])=[N:4][N:5]=[C:6]1[H:11])[H:8]"
N       -1.53921705      -0.25410090       0.12498504
C       -0.52819668       0.18093285      -0.66229385
C        0.65225147      -0.63924389      -0.84303873
N        1.44414517      -0.21179481       0.13901635
N        1.34058962       1.19702830       0.12330132
C        0.15613410       1.44214079      -0.35857596
H       -0.75370038      -0.52766585       1.44791693
H       -1.89029862      -1.14539277      -0.21115874
H        0.66732257      -1.68149828      -1.13322404
H        0.79388582      -0.72553422       1.46637591
H       -0.34291602       2.36512879      -0.09330425
11
Frame=15 idx=001760 GeodesicLength=1.1868691598129426 rxn_smarts="[N:1]([c:2]1[c:3]([H:9])[n:4]([H:10])[n:5][c:6]1[H:11])([H:7])[H:8]>>[H:7][H:10].[N:1](=[C:2]1[C:3]([H:9])=[N:4][N:5]=[C:6]1[H:11])[H:8]"
N       -1.54608493      -0.25519430       0.12224754
C       -0.53170825       0.18026153      -0.65932396
C        0.65590634      -0.63543621      -0.84567442
N        1.43793643      -0.20592653       0.14338559
N        1.34515199       1.19939441       0.10743598
C        0.15675220       1.44314747      -0.37115911
H       -0.76874211      -0.53363967       1.47346988
H       -1.90669966      -1.13661637      -0.22820821
H        0.67661236      -1.67695800      -1.13789618
H        0.82389650      -0.74148554       1.49008383
H       -0.34302087       2.36245321      -0.09436092
11
Frame=16 idx=001760 GeodesicLength=1.2660321763365365 rxn_smarts="[N:1]([c:2]1[c:3]([H:9])[n:4]([H:10])[n:5][c:6]1[H:11])([H:7])[H:8]>>[H:7][H:10].[N:1](=[C:2]1[C:3]([H:9])=[N:4][N:5]=[C:6]1[H:11])[H:8]"
N       -1.55316416      -0.25632093       0.11925289
C       -0.53528847       0.17961745      -0.65636110
C        0.65954692      -0.63157321      -0.84813490
N        1.43125712      -0.19983617       0.14813220
N        1.34942662       1.20169065       0.09164190
C        0.15715886       1.44412908      -0.38386973
H       -0.78474686      -0.53972134       1.49957125
H       -1.92348908      -1.12719337      -0.24588330
H        0.68599714      -1.67238250      -1.14217932
H        0.85641402      -0.75825882       1.51375014
H       -0.34311210       2.35984916      -0.09592003
