19
Frame=0 idx=006356 GeodesicLength=0.0 rxn_smarts="[C:1]([C:2]([C@@:3]([O:4][H:14])([C:5]([C:6]([O:7][H:19])([H:17])[H:18])([H:15])[H:16])[H:13])([H:11])[H:12])([H:8])([H:9])[H:10]>>[C:1]([C:2](/[C:3]([O:4][H:14])=[C:5](\[C:6]([O:7][H:19])([H:17])[H:18])[H:15])([H:11])[H:12])([H:8])([H:9])[H:10].[H:13][H:16]"
C        2.30396263      -0.69592387       0.59189654
C        0.97773811      -0.51078589      -0.12657568
C        0.19930545       0.71089843       0.29298755
O        0.96365720       1.81967327       0.49193586
C       -1.14022122       0.89441284      -0.21477468
C       -1.84480246      -0.12156962      -1.02699621
O       -2.35903621      -1.18037293      -0.19441701
H        2.81807927      -1.57621617       0.20441305
H        2.95293083       0.16872251       0.45354869
H        2.15115128      -0.83716492       1.66331489
H        0.33346636      -1.38279425      -0.00325441
H        1.14589885      -0.37816201      -1.20103686
H        0.09425308       0.31945973       1.75817682
H        0.45176399       2.57184284       0.17782988
H       -1.64644802       1.81062965       0.06724156
H       -0.77013293       0.42715261       1.16816760
H       -1.19105921      -0.56490561      -1.78922024
H       -2.67234870       0.36534191      -1.55420490
H       -2.76815834      -1.84023857      -0.75903244
19
Frame=1 idx=006356 GeodesicLength=0.13571024518925495 rxn_smarts="[C:1]([C:2]([C@@:3]([O:4][H:14])([C:5]([C:6]([O:7][H:19])([H:17])[H:18])([H:15])[H:16])[H:13])([H:11])[H:12])([H:8])([H:9])[H:10]>>[C:1]([C:2](/[C:3]([O:4][H:14])=[C:5](\[C:6]([O:7][H:19])([H:17])[H:18])[H:15])([H:11])[H:12])([H:8])([H:9])[H:10].[H:13][H:16]"
C        2.31386302      -0.69983743       0.59108975
C        1.00192825      -0.49836949      -0.14997489
C        0.20383084       0.70565518       0.28295793
O        0.97114293       1.81090184       0.50497458
C       -1.12372358       0.89379369      -0.24949569
C       -1.85603780      -0.13600529      -1.02113027
O       -2.37330179      -1.16315594      -0.15348305
H        2.84291483      -1.56419225       0.18789635
H        2.96186802       0.17114971       0.49466291
H        2.13794272      -0.87563762       1.65382075
H        0.36846654      -1.38269014      -0.06441703
H        1.19475327      -0.34063181      -1.21693334
H        0.06306149       0.30707323       1.76157229
H        0.44156182       2.57814917       0.26729560
H       -1.62148084       1.83143505      -0.02837754
H       -0.81755281       0.45496171       1.16486396
H       -1.21922556      -0.60706342      -1.78081916
H       -2.68481625       0.34454633      -1.55252674
H       -2.80519510      -1.83008251      -0.69197641
19
Frame=2 idx=006356 GeodesicLength=0.27102083614177674 rxn_smarts="[C:1]([C:2]([C@@:3]([O:4][H:14])([C:5]([C:6]([O:7][H:19])([H:17])[H:18])([H:15])[H:16])[H:13])([H:11])[H:12])([H:8])([H:9])[H:10]>>[C:1]([C:2](/[C:3]([O:4][H:14])=[C:5](\[C:6]([O:7][H:19])([H:17])[H:18])[H:15])([H:11])[H:12])([H:8])([H:9])[H:10].[H:13][H:16]"
C        2.32339422      -0.70378694       0.59015602
C        1.02686933      -0.48559958      -0.17389247
C        0.20845784       0.69944451       0.27270221
O        0.97652177       1.80254718       0.51644712
C       -1.10742554       0.89120885      -0.28274639
C       -1.86729643      -0.15009420      -1.01370231
O       -2.38643082      -1.14509621      -0.11228566
H        2.86889551      -1.55054632       0.17167045
H        2.96855984       0.17296831       0.53778336
H        2.12375122      -0.91573216       1.64205587
H        0.40502773      -1.38098641      -0.12821599
H        1.24498056      -0.30110530      -1.23170594
H        0.02999400       0.29462597       1.76422568
H        0.42942632       2.57713071       0.35638105
H       -1.59195850       1.84900353      -0.12737706
H       -0.86630051       0.48754088       1.16141080
H       -1.24791124      -0.64845677      -1.77013229
H       -2.69753378       0.32441156      -1.54845306
H       -2.84102153      -1.81747761      -0.62432137
19
Frame=3 idx=006356 GeodesicLength=0.4061545085644792 rxn_smarts="[C:1]([C:2]([C@@:3]([O:4][H:14])([C:5]([C:6]([O:7][H:19])([H:17])[H:18])([H:15])[H:16])[H:13])([H:11])[H:12])([H:8])([H:9])[H:10]>>[C:1]([C:2](/[C:3]([O:4][H:14])=[C:5](\[C:6]([O:7][H:19])([H:17])[H:18])[H:15])([H:11])[H:12])([H:8])([H:9])[H:10].[H:13][H:16]"
C        2.33265057      -0.70782829       0.58918980
C        1.05264893      -0.47227982      -0.19819720
C        0.21309589       0.69220517       0.26272848
O        0.97964773       1.79466799       0.52737937
C       -1.09174867       0.88667466      -0.31373135
C       -1.87873702      -0.16374102      -1.00460280
O       -2.39872727      -1.12657030      -0.07110429
H        2.89618898      -1.53520794       0.15585282
H        2.97294506       0.17399226       0.58309876
H        2.10884459      -0.95753319       1.62787159
H        0.44335292      -1.37737703      -0.19493349
H        1.29657610      -0.25895879      -1.24494123
H       -0.00530077       0.28199931       1.76650228
H        0.41649210       2.56921571       0.44132165
H       -1.55791043       1.86248017      -0.22863985
H       -0.91639907       0.52434519       1.15795078
H       -1.27707245      -0.68872933      -1.75710239
H       -2.71061169       0.30529252      -1.54191421
H       -2.87593551      -1.80264727      -0.55672873
19
Frame=4 idx=006356 GeodesicLength=0.5411103091333089 rxn_smarts="[C:1]([C:2]([C@@:3]([O:4][H:14])([C:5]([C:6]([O:7][H:19])([H:17])[H:18])([H:15])[H:16])[H:13])([H:11])[H:12])([H:8])([H:9])[H:10]>>[C:1]([C:2](/[C:3]([O:4][H:14])=[C:5](\[C:6]([O:7][H:19])([H:17])[H:18])[H:15])([H:11])[H:12])([H:8])([H:9])[H:10].[H:13][H:16]"
C        2.34137132      -0.71209448       0.58810838
C        1.07929136      -0.45813568      -0.22296810
C        0.21786794       0.68397471       0.25301619
O        0.98068276       1.78717792       0.53779702
C       -1.07668105       0.88023995      -0.34220604
C       -1.89006300      -0.17698895      -0.99379315
O       -2.41018823      -1.10747988      -0.02983008
H        2.92441309      -1.51821694       0.14058698
H        2.97458987       0.17375187       0.63073677
H        2.09286808      -1.00132178       1.61081982
H        0.48357911      -1.37122760      -0.26474599
H        1.34954397      -0.21376473      -1.25641419
H       -0.04288782       0.26950672       1.76835799
H        0.40284146       2.55526724       0.52085730
H       -1.51980002       1.87051468      -0.33076768
H       -0.96769125       0.56505992       1.15414435
H       -1.30629162      -0.72803311      -1.74151901
H       -2.72349389       0.28718262      -1.53309911
H       -2.90995207      -1.78541248      -0.48908148
19
Frame=5 idx=006356 GeodesicLength=0.6759304740234309 rxn_smarts="[C:1]([C:2]([C@@:3]([O:4][H:14])([C:5]([C:6]([O:7][H:19])([H:17])[H:18])([H:15])[H:16])[H:13])([H:11])[H:12])([H:8])([H:9])[H:10]>>[C:1]([C:2](/[C:3]([O:4][H:14])=[C:5](\[C:6]([O:7][H:19])([H:17])[H:18])[H:15])([H:11])[H:12])([H:8])([H:9])[H:10].[H:13][H:16]"
C        2.34958979      -0.71683747       0.58682242
C        1.10675119      -0.44303762      -0.24797229
C        0.22278953       0.67485273       0.24386274
O        0.97994126       1.77997103       0.54829275
C       -1.06248689       0.87209509      -0.36771075
C       -1.90124412      -0.18984355      -0.98136773
O       -2.42114673      -1.08807730       0.01123904
H        2.95337514      -1.49993423       0.12592882
H        2.97358001       0.17161541       0.68028507
H        2.07618390      -1.04694853       1.59065141
H        0.52565527      -1.36207811      -0.33741644
H        1.40360998      -0.16545754      -1.26563754
H       -0.08284000       0.25773597       1.77011048
H        0.38913188       2.53689661       0.59298853
H       -1.47841992       1.87227308      -0.43214450
H       -1.02022126       0.60908556       1.14990934
H       -1.33524226      -0.76625678      -1.72338966
H       -2.73600834       0.27016097      -1.52240159
H       -2.94299842      -1.76621530      -0.42205008
19
Frame=6 idx=006356 GeodesicLength=0.8106765502687966 rxn_smarts="[C:1]([C:2]([C@@:3]([O:4][H:14])([C:5]([C:6]([O:7][H:19])([H:17])[H:18])([H:15])[H:16])[H:13])([H:11])[H:12])([H:8])([H:9])[H:10]>>[C:1]([C:2](/[C:3]([O:4][H:14])=[C:5](\[C:6]([O:7][H:19])([H:17])[H:18])[H:15])([H:11])[H:12])([H:8])([H:9])[H:10].[H:13][H:16]"
C        2.35720415      -0.72228895       0.58514308
C        1.13503903      -0.42678888      -0.27319996
C        0.22803370       0.66498734       0.23516900
O        0.97780008       1.77298794       0.55877147
C       -1.04908804       0.86240858      -0.39031017
C       -1.91196870      -0.20251499      -0.96746903
O       -2.43171667      -1.06822419       0.05216715
H        2.98278307      -1.48062951       0.11190399
H        2.96973107       0.16696894       0.73156069
H        2.05874104      -1.09460715       1.56685630
H        0.56963923      -1.34933948      -0.41279386
H        1.45862860      -0.11397935      -1.27234238
H       -0.12492512       0.24738646       1.77177737
H        0.37536198       2.51539096       0.65789275
H       -1.43489684       1.86699610      -0.53133006
H       -1.07402617       0.65615422       1.14473803
H       -1.36338944      -0.80388883      -1.70252317
H       -2.74758839       0.25385369      -1.51048782
H       -2.97536257      -1.74487291      -0.35552339
19
Frame=7 idx=006356 GeodesicLength=0.945262108376285 rxn_smarts="[C:1]([C:2]([C@@:3]([O:4][H:14])([C:5]([C:6]([O:7][H:19])([H:17])[H:18])([H:15])[H:16])[H:13])([H:11])[H:12])([H:8])([H:9])[H:10]>>[C:1]([C:2](/[C:3]([O:4][H:14])=[C:5](\[C:6]([O:7][H:19])([H:17])[H:18])[H:15])([H:11])[H:12])([H:8])([H:9])[H:10].[H:13][H:16]"
C        2.36420842      -0.72862656       0.58276932
C        1.16405130      -0.40931969      -0.29847271
C        0.23366882       0.65446776       0.22701338
O        0.97461759       1.76607745       0.56936722
C       -1.03647764       0.85137868      -0.40998948
C       -1.92200981      -0.21515968      -0.95224131
O       -2.44224222      -1.04778151       0.09288633
H        3.01233976      -1.46062916       0.09837132
H        2.96310873       0.15923510       0.78378188
H        2.04087276      -1.14399135       1.53904433
H        0.61537013      -1.33255613      -0.49033554
H        1.51421727      -0.05963061      -1.27619582
H       -0.16910127       0.23919453       1.77353413
H        0.36168673       2.49179649       0.71619018
H       -1.39004238       1.85440892      -0.62743145
H       -1.12936150       0.70605794       1.13819640
H       -1.39019641      -0.84125404      -1.67870039
H       -2.75774169       0.23789741      -1.49806979
H       -3.00696858      -1.72156556      -0.28971802
19
Frame=8 idx=006356 GeodesicLength=1.0797508163551284 rxn_smarts="[C:1]([C:2]([C@@:3]([O:4][H:14])([C:5]([C:6]([O:7][H:19])([H:17])[H:18])([H:15])[H:16])[H:13])([H:11])[H:12])([H:8])([H:9])[H:10]>>[C:1]([C:2](/[C:3]([O:4][H:14])=[C:5](\[C:6]([O:7][H:19])([H:17])[H:18])[H:15])([H:11])[H:12])([H:8])([H:9])[H:10].[H:13][H:16]"
C        2.37069875      -0.73597053       0.57939826
C        1.19377466      -0.39055048      -0.32369975
C        0.23981126       0.64336242       0.21937402
O        0.97065143       1.75916572       0.58009046
C       -1.02455123       0.83916204      -0.42693024
C       -1.93112486      -0.22803829      -0.93586021
O       -2.45305060      -1.02641288       0.13344214
H        3.04192175      -1.44020143       0.08520263
H        2.95379676       0.14798473       0.83632385
H        2.02291803      -1.19492776       1.50677473
H        0.66282430      -1.31132975      -0.56955952
H        1.57008132      -0.00266520      -1.27697596
H       -0.21518619       0.23375376       1.77545994
H        0.34806794       2.46668335       0.76915380
H       -1.34477309       1.83448426      -0.71963240
H       -1.18655706       0.75881721       1.12963639
H       -1.41512252      -0.87898234      -1.65158834
H       -2.76597216       0.22169083      -1.48603136
H       -3.03820848      -1.69602566      -0.22457844
19
Frame=9 idx=006356 GeodesicLength=1.2140249592101056 rxn_smarts="[C:1]([C:2]([C@@:3]([O:4][H:14])([C:5]([C:6]([O:7][H:19])([H:17])[H:18])([H:15])[H:16])[H:13])([H:11])[H:12])([H:8])([H:9])[H:10]>>[C:1]([C:2](/[C:3]([O:4][H:14])=[C:5](\[C:6]([O:7][H:19])([H:17])[H:18])[H:15])([H:11])[H:12])([H:8])([H:9])[H:10].[H:13][H:16]"
C        2.37676138      -0.74435047       0.57466290
C        1.22407915      -0.37045084      -0.34870509
C        0.24649392       0.63165688       0.21236361
O        0.96608771       1.75209196       0.59115197
C       -1.01319279       0.82590436      -0.44120480
C       -1.93909739      -0.24134642      -0.91839189
O       -2.46453609      -1.00373040       0.17381677
H        3.07132886      -1.41952903       0.07211035
H        2.94197676       0.13291531       0.88828607
H        2.00534451      -1.24701823       1.46969779
H        0.71176572      -1.28535397      -0.64979582
H        1.62576611       0.05655820      -1.27446159
H       -0.26323175       0.23150183       1.77766163
H        0.33453735       2.44026174       0.81817288
H       -1.29947753       1.80736690      -0.80770382
H       -1.24602521       0.81460147       1.11832965
H       -1.43768732      -0.91751165      -1.62072198
H       -2.77176787       0.20464597      -1.47505129
H       -3.06912551      -1.66821361      -0.16021735
19
Frame=10 idx=006356 GeodesicLength=1.3481519716494446 rxn_smarts="[C:1]([C:2]([C@@:3]([O:4][H:14])([C:5]([C:6]([O:7][H:19])([H:17])[H:18])([H:15])[H:16])[H:13])([H:11])[H:12])([H:8])([H:9])[H:10]>>[C:1]([C:2](/[C:3]([O:4][H:14])=[C:5](\[C:6]([O:7][H:19])([H:17])[H:18])[H:15])([H:11])[H:12])([H:8])([H:9])[H:10].[H:13][H:16]"
C        2.38264276      -0.75374239       0.56821968
C        1.25493793      -0.34901103      -0.37334318
C        0.25376832       0.61928066       0.20607283
O        0.96099637       1.74469504       0.60278032
C       -1.00229320       0.81171480      -0.45295154
C       -1.94578038      -0.25529792      -0.89991890
O       -2.47718923      -0.97919461       0.21402544
H        3.10057907      -1.39876349       0.05881396
H        2.92798526       0.11385663       0.93883653
H        1.98872631      -1.29984813       1.42752839
H        0.76209006      -1.25442329      -0.73039156
H        1.68093048       0.11768395      -1.26850536
H       -0.31326725       0.23270887       1.78018318
H        0.32101467       2.41241124       0.86468627
H       -1.25458822       1.77328793      -0.89122641
H       -1.30822501       0.87368803       1.10335027
H       -1.45744936      -0.95738512      -1.58555845
H       -2.77472105       0.18608833      -1.46591668
H       -3.10015754      -1.63774950      -0.09668480
19
Frame=11 idx=006356 GeodesicLength=1.4821765576263406 rxn_smarts="[C:1]([C:2]([C@@:3]([O:4][H:14])([C:5]([C:6]([O:7][H:19])([H:17])[H:18])([H:15])[H:16])[H:13])([H:11])[H:12])([H:8])([H:9])[H:10]>>[C:1]([C:2](/[C:3]([O:4][H:14])=[C:5](\[C:6]([O:7][H:19])([H:17])[H:18])[H:15])([H:11])[H:12])([H:8])([H:9])[H:10].[H:13][H:16]"
C        2.38862659      -0.76407070       0.55972688
C        1.28629355      -0.32623301      -0.39744021
C        0.26165076       0.60609657       0.20065768
O        0.95536810       1.73675621       0.61533239
C       -0.99173833       0.79667784      -0.46224516
C       -1.95107295      -0.27006850      -0.88042426
O       -2.49150682      -0.95221283       0.25404114
H        3.12974048      -1.37794946       0.04493894
H        2.91223829       0.09073742       0.98716867
H        1.97369502      -1.35301331       1.38003257
H        0.81361829      -1.21840073      -0.81067974
H        1.73520322       0.18038971      -1.25897557
H       -0.36542622       0.23747843       1.78304511
H        0.30739395       2.38279174       0.91001522
H       -1.21024922       1.73248536      -0.97002171
H       -1.37359552       0.93645713       1.08355940
H       -1.47408076      -0.99901131      -1.54543134
H       -2.77445826       0.16532742      -1.45920283
H       -3.13170018      -1.60423798      -0.03409717
19
Frame=12 idx=006356 GeodesicLength=1.6161464379828723 rxn_smarts="[C:1]([C:2]([C@@:3]([O:4][H:14])([C:5]([C:6]([O:7][H:19])([H:17])[H:18])([H:15])[H:16])[H:13])([H:11])[H:12])([H:8])([H:9])[H:10]>>[C:1]([C:2](/[C:3]([O:4][H:14])=[C:5](\[C:6]([O:7][H:19])([H:17])[H:18])[H:15])([H:11])[H:12])([H:8])([H:9])[H:10].[H:13][H:16]"
C        2.39506770      -0.77520796       0.54886391
C        1.31808318      -0.30213666      -0.42079499
C        0.27014140       0.59189758       0.19631385
O        0.94912296       1.72798757       0.62926041
C       -0.98141330       0.78084944      -0.46913278
C       -1.95494057      -0.28579260      -0.85982163
O       -2.50801161      -0.92211111       0.29376748
H        3.15895451      -1.35705888       0.03006492
H        2.89527906       0.06358751       1.03250081
H        1.96096034      -1.40608779       1.32705764
H        0.86613151      -1.17722285      -0.88997854
H        1.78820846       0.24437579      -1.24574817
H       -0.41987762       0.24573814       1.78622614
H        0.29351190       2.35087921       0.95533284
H       -1.16647599       1.68518896      -1.04390898
H       -1.44249077       1.00333296       1.05752362
H       -1.48740221      -1.04267459      -1.49957114
H       -2.77065979       0.14166378      -1.45530867
H       -3.16418917      -1.56720849       0.02735328
19
Frame=13 idx=006356 GeodesicLength=1.7501062464485448 rxn_smarts="[C:1]([C:2]([C@@:3]([O:4][H:14])([C:5]([C:6]([O:7][H:19])([H:17])[H:18])([H:15])[H:16])[H:13])([H:11])[H:12])([H:8])([H:9])[H:10]>>[C:1]([C:2](/[C:3]([O:4][H:14])=[C:5](\[C:6]([O:7][H:19])([H:17])[H:18])[H:15])([H:11])[H:12])([H:8])([H:9])[H:10].[H:13][H:16]"
C        2.40240811      -0.78693337       0.53532849
C        1.35022593      -0.27678787      -0.44316375
C        0.27922184       0.57637677       0.19328342
O        0.94210036       1.71798981       0.64510948
C       -0.97120571       0.76425385      -0.47362163
C       -1.95743234      -0.30252974      -0.83796058
O       -2.52727716      -0.88813920       0.33299014
H        3.18842920      -1.33595533       0.01371744
H        2.87783425       0.03260272       1.07399398
H        1.95135151      -1.45849995       1.26861032
H        0.91935137      -1.13094721      -0.96751774
H        1.83951822       0.30929738      -1.22873013
H       -0.47677739       0.25716174       1.78968490
H        0.27911493       2.31593154       1.00171071
H       -1.12312357       1.63157318      -1.11270046
H       -1.51510445       1.07469292       1.02347295
H       -1.49743477      -1.08846015      -1.44713372
H       -2.76305016       0.11445644      -1.45442565
H       -3.19815018      -1.52608353       0.08735184
19
Frame=14 idx=006356 GeodesicLength=1.8841011551650886 rxn_smarts="[C:1]([C:2]([C@@:3]([O:4][H:14])([C:5]([C:6]([O:7][H:19])([H:17])[H:18])([H:15])[H:16])[H:13])([H:11])[H:12])([H:8])([H:9])[H:10]>>[C:1]([C:2](/[C:3]([O:4][H:14])=[C:5](\[C:6]([O:7][H:19])([H:17])[H:18])[H:15])([H:11])[H:12])([H:8])([H:9])[H:10].[H:13][H:16]"
C        2.41114244      -0.79903858       0.51885351
C        1.38264187      -0.25019084      -0.46430295
C        0.28885754       0.55915653       0.19184374
O        0.93405845       1.70627269       0.66358757
C       -0.96099529       0.74685281      -0.47570622
C       -1.95866488      -0.32033616      -0.81456573
O       -2.54993331      -0.84929550       0.37144271
H        3.21856053      -1.31425689      -0.00465032
H        2.86056741      -0.00207859       1.11119541
H        1.94574335      -1.51006301       1.20451060
H        0.97300292      -1.07955926      -1.04273765
H        1.88873749       0.37507714      -1.20773199
H       -0.53621700       0.27114771       1.79337273
H        0.26380206       2.27724176       1.04978917
H       -1.08008475       1.57174012      -1.17617066
H       -1.59128722       1.15091641       0.97918749
H       -1.50442002      -1.13644811      -1.38696799
H       -2.75133078       0.08293528      -1.45656709
H       -3.23418084      -1.48007351       0.14561768
19
Frame=15 idx=006356 GeodesicLength=2.018226277805251 rxn_smarts="[C:1]([C:2]([C@@:3]([O:4][H:14])([C:5]([C:6]([O:7][H:19])([H:17])[H:18])([H:15])[H:16])[H:13])([H:11])[H:12])([H:8])([H:9])[H:10]>>[C:1]([C:2](/[C:3]([O:4][H:14])=[C:5](\[C:6]([O:7][H:19])([H:17])[H:18])[H:15])([H:11])[H:12])([H:8])([H:9])[H:10].[H:13][H:16]"
C        2.42186725      -0.81120335       0.49919119
C        1.41524737      -0.22238247      -0.48392110
C        0.29900558       0.53975252       0.19229262
O        0.92466967       1.69218180       0.68550252
C       -0.95068932       0.72856446      -0.47533184
C       -1.95888773      -0.33916477      -0.78928670
O       -2.57668353      -0.80445644       0.40866070
H        3.24981997      -1.29144177      -0.02558319
H        2.84432643      -0.04017808       1.14357847
H        1.94514250      -1.56037402       1.13470128
H        1.02679824      -1.02312515      -1.11498824
H        1.93542031       0.44159548      -1.18254783
H       -0.59811190       0.28661843       1.79729627
H        0.24697818       2.23401404       1.09997109
H       -1.03717009       1.50570945      -1.23402017
H       -1.67049933       1.23208796       0.92207030
H       -1.50889941      -1.18643309      -1.31781091
H       -2.73527946       0.04639329      -1.46148635
H       -3.27305473      -1.42815828       0.20171188
19
Frame=16 idx=006356 GeodesicLength=2.1525581345152123 rxn_smarts="[C:1]([C:2]([C@@:3]([O:4][H:14])([C:5]([C:6]([O:7][H:19])([H:17])[H:18])([H:15])[H:16])[H:13])([H:11])[H:12])([H:8])([H:9])[H:10]>>[C:1]([C:2](/[C:3]([O:4][H:14])=[C:5](\[C:6]([O:7][H:19])([H:17])[H:18])[H:15])([H:11])[H:12])([H:8])([H:9])[H:10].[H:13][H:16]"
C        2.43518540      -0.82303947       0.47616060
C        1.44792427      -0.19338116      -0.50169606
C        0.30962048       0.51763693       0.19488982
O        0.91357896       1.67492634       0.71171579
C       -0.94022317       0.70928068      -0.47240998
C       -1.95848593      -0.35886237      -0.76168475
O       -2.60813545      -0.75242772       0.44395139
H        3.28268146      -1.26686601      -0.04955409
H        2.83001392      -0.08135701       1.17071959
H        1.95052818      -1.60897916       1.05918669
H        1.08040771      -0.96169985      -1.18364733
H        1.97909822       0.50879155      -1.15290428
H       -0.66208634       0.30195685       1.80156437
H        0.22788824       2.18558070       1.15220227
H       -0.99425809       1.43347647      -1.28586130
H       -1.75161155       1.31784661       0.84917464
H       -1.51179846      -1.23787333      -1.23833098
H       -2.71480678       0.00417444      -1.46854354
H       -3.31552107      -1.36918449       0.25506714
