11
Frame=0 idx=005343 GeodesicLength=0.0 rxn_smarts="[C:1]([C:2](=[O:3])[C:4]([C:5]#[N:6])([H:10])[H:11])([H:7])([H:8])[H:9]>>[C:1]1([H:7])([H:9])[C@:2]([C:4]([C:5]#[N:6])([H:10])[H:11])([H:8])[O:3]1"
C       -1.33785638       0.46203519       0.38674624
C       -0.49486852      -0.63125544      -0.00754609
O       -0.89270493      -1.73425048       0.56594468
C        1.04139049      -0.41134005       0.01787311
C        1.38569980       0.89473527      -0.52346632
N        1.56085384       1.95118180      -0.93676256
H       -2.39939592       0.24434926       0.37250037
H       -0.75105669      -0.50877799      -1.13779933
H       -1.00740540       1.42920839       0.76403354
H        1.51631579      -1.20720658      -0.55348173
H        1.37902787      -0.48867934       1.05195807
11
Frame=1 idx=005343 GeodesicLength=0.08075876336993434 rxn_smarts="[C:1]([C:2](=[O:3])[C:4]([C:5]#[N:6])([H:10])[H:11])([H:7])([H:8])[H:9]>>[C:1]1([H:7])([H:9])[C@:2]([C:4]([C:5]#[N:6])([H:10])[H:11])([H:8])[O:3]1"
C       -1.34464185       0.44806993       0.37705611
C       -0.48450793      -0.63553678      -0.00914231
O       -0.89864568      -1.71125697       0.59896585
C        1.04758754      -0.41102667       0.01608726
C        1.39420487       0.89444525      -0.52561989
N        1.57500885       1.94874931      -0.94172527
H       -2.40667632       0.23422963       0.35140142
H       -0.77442223      -0.47742890      -1.14005459
H       -1.01581770       1.40521411       0.78017114
H        1.52095462      -1.20707226      -0.55675873
H        1.38695582      -0.48838665       1.04961902
11
Frame=2 idx=005343 GeodesicLength=0.16143619049223162 rxn_smarts="[C:1]([C:2](=[O:3])[C:4]([C:5]#[N:6])([H:10])[H:11])([H:7])([H:8])[H:9]>>[C:1]1([H:7])([H:9])[C@:2]([C:4]([C:5]#[N:6])([H:10])[H:11])([H:8])[O:3]1"
C       -1.35110491       0.43402389       0.36785302
C       -0.47484852      -0.64013351      -0.01172301
O       -0.90383410      -1.68766990       0.63062189
C        1.05333050      -0.41079853       0.01443561
C        1.40275898       0.89388245      -0.52777966
N        1.58886295       1.94605687      -0.94671588
H       -2.41355695       0.22398652       0.33237047
H       -0.79701945      -0.44568282      -1.14213756
H       -1.02435048       1.38135384       0.79486420
H        1.52579537      -1.20702890      -0.55936528
H        1.39396661      -0.48798991       1.04757619
11
Frame=3 idx=005343 GeodesicLength=0.24204446422490827 rxn_smarts="[C:1]([C:2](=[O:3])[C:4]([C:5]#[N:6])([H:10])[H:11])([H:7])([H:8])[H:9]>>[C:1]1([H:7])([H:9])[C@:2]([C:4]([C:5]#[N:6])([H:10])[H:11])([H:8])[O:3]1"
C       -1.35730499       0.41995290       0.35911716
C       -0.46584104      -0.64500945      -0.01508719
O       -0.90829066      -1.66365182       0.66076333
C        1.05864564      -0.41064283       0.01292793
C        1.41134742       0.89305632      -0.52996020
N        1.60240145       1.94310678      -0.95177928
H       -2.42012530       0.21362790       0.31523797
H       -0.81884375      -0.41361607      -1.14394838
H       -1.03293466       1.35772026       0.80823585
H        1.53080243      -1.20707553      -0.56133072
H        1.40014346      -0.48746846       1.04582352
11
Frame=4 idx=005343 GeodesicLength=0.322594665025098 rxn_smarts="[C:1]([C:2](=[O:3])[C:4]([C:5]#[N:6])([H:10])[H:11])([H:7])([H:8])[H:9]>>[C:1]1([H:7])([H:9])[C@:2]([C:4]([C:5]#[N:6])([H:10])[H:11])([H:8])[O:3]1"
C       -1.36329747       0.40590319       0.35083353
C       -0.45742967      -0.65011486      -0.01904293
O       -0.91205156      -1.63936099       0.68928366
C        1.06356456      -0.41054499       0.01156832
C        1.41995861       0.89198284      -0.53217188
N        1.61563627       1.93990651      -0.95694762
H       -2.42645379       0.20315162       0.29982918
H       -0.83990761      -0.38130304      -1.14539142
H       -1.04153117       1.33439869       0.82039072
H        1.53593394      -1.20720798      -0.56269796
H        1.40557789      -0.48681098       1.04434641
11
Frame=5 idx=005343 GeodesicLength=0.40309829560567556 rxn_smarts="[C:1]([C:2](=[O:3])[C:4]([C:5]#[N:6])([H:10])[H:11])([H:7])([H:8])[H:9]>>[C:1]1([H:7])([H:9])[C@:2]([C:4]([C:5]#[N:6])([H:10])[H:11])([H:8])[O:3]1"
C       -1.36913350       0.39190768       0.34299421
C       -0.44955516      -0.65539387      -0.02341399
O       -0.91516413      -1.61494879       0.71611288
C        1.06812361      -0.41049078       0.01035721
C        1.42858606       0.89068014      -0.53442062
N        1.62859565       1.93646585      -0.96223831
H       -2.43260289       0.19254420       0.28598169
H       -0.86023947      -0.34880446      -1.14638030
H       -1.05012324       1.31147473       0.83139990
H        1.54114885      -1.20741993      -0.56351822
H        1.41036421      -0.48601476       1.04312556
11
Frame=6 idx=005343 GeodesicLength=0.4835717720140229 rxn_smarts="[C:1]([C:2](=[O:3])[C:4]([C:5]#[N:6])([H:10])[H:11])([H:7])([H:8])[H:9]>>[C:1]1([H:7])([H:9])[C@:2]([C:4]([C:5]#[N:6])([H:10])[H:11])([H:8])[O:3]1"
C       -1.37487356       0.37799173       0.33558605
C       -0.44216271      -0.66079060      -0.02805084
O       -0.91770421      -1.59054843       0.74124210
C        1.07237145      -0.41046073       0.00928608
C        1.43724478       0.88917492      -0.53672212
N        1.64135652       1.93280426      -0.96767139
H       -2.43865146       0.18178660       0.27352401
H       -0.87989180      -0.31619244      -1.14686114
H       -1.05871717       1.28900449       0.84137794
H        1.54642061      -1.20770458      -0.56385640
H        1.41460753      -0.48506523       1.04214570
11
Frame=7 idx=005343 GeodesicLength=0.5639948868858872 rxn_smarts="[C:1]([C:2](=[O:3])[C:4]([C:5]#[N:6])([H:10])[H:11])([H:7])([H:8])[H:9]>>[C:1]1([H:7])([H:9])[C@:2]([C:4]([C:5]#[N:6])([H:10])[H:11])([H:8])[O:3]1"
C       -1.38050500       0.36417273       0.32858023
C       -0.43517817      -0.66623909      -0.03281278
O       -0.91966512      -1.56627831       0.76465240
C        1.07630956      -0.41045209       0.00836227
C        1.44586596       0.88747476      -0.53905661
N        1.65386630       1.92891419      -0.97324093
H       -2.44453755       0.17087644       0.26229622
H       -0.89887950      -0.28345298      -1.14673357
H       -1.06729414       1.26704224       0.85032052
H        1.55166895      -1.20805476      -0.56373196
H        1.41834871      -0.48400312       1.04136421
11
Frame=8 idx=005343 GeodesicLength=0.6443946843080348 rxn_smarts="[C:1]([C:2](=[O:3])[C:4]([C:5]#[N:6])([H:10])[H:11])([H:7])([H:8])[H:9]>>[C:1]1([H:7])([H:9])[C@:2]([C:4]([C:5]#[N:6])([H:10])[H:11])([H:8])[O:3]1"
C       -1.38612594       0.35045244       0.32197600
C       -0.42858040      -0.67171693      -0.03760101
O       -0.92121110      -1.54224415       0.78641992
C        1.08003202      -0.41044060       0.00756048
C        1.45456680       0.88561453      -0.54146551
N        1.66628855       1.92485520      -0.97894095
H       -2.45042942       0.15976985       0.25218822
H       -0.91730563      -0.25069530      -1.14603024
H       -1.07589469       1.24565177       0.85835840
H        1.55692960      -1.20847054      -0.56325656
H        1.42173021      -0.48277629       1.04079125
11
Frame=9 idx=005343 GeodesicLength=0.7247743676428618 rxn_smarts="[C:1]([C:2](=[O:3])[C:4]([C:5]#[N:6])([H:10])[H:11])([H:7])([H:8])[H:9]>>[C:1]1([H:7])([H:9])[C@:2]([C:4]([C:5]#[N:6])([H:10])[H:11])([H:8])[O:3]1"
C       -1.39166553       0.33684978       0.31569536
C       -0.42225030      -0.67714873      -0.04233063
O       -0.92224839      -1.51846320       0.80663468
C        1.08350398      -0.41044278       0.00687091
C        1.46318149       0.88355381      -0.54395215
N        1.67847602       1.92060945      -0.98464379
H       -2.45617165       0.14849600       0.24300342
H       -0.93520271      -0.21786391      -1.14462958
H       -1.08447365       1.22481831       0.86542496
H        1.56209082      -1.20894377      -0.56240259
H        1.42475991      -0.48146497       1.04032941
11
Frame=10 idx=005343 GeodesicLength=0.8051350205921143 rxn_smarts="[C:1]([C:2](=[O:3])[C:4]([C:5]#[N:6])([H:10])[H:11])([H:7])([H:8])[H:9]>>[C:1]1([H:7])([H:9])[C@:2]([C:4]([C:5]#[N:6])([H:10])[H:11])([H:8])[O:3]1"
C       -1.39722622       0.32333742       0.30976628
C       -0.41620437      -0.68253001      -0.04694853
O       -0.92295395      -1.49506073       0.82534571
C        1.08680854      -0.41042136       0.00628832
C        1.47184721       0.88136528      -0.54652682
N        1.69067412       1.91620339      -0.99049260
H       -2.46192602       0.13697705       0.23467270
H       -0.95266150      -0.18497271      -1.14258953
H       -1.09310231       1.20456765       0.87170934
H        1.56721578      -1.20947238      -0.56125816
H        1.42752872      -0.47999359       1.04003330
11
Frame=11 idx=005343 GeodesicLength=0.8854803002832679 rxn_smarts="[C:1]([C:2](=[O:3])[C:4]([C:5]#[N:6])([H:10])[H:11])([H:7])([H:8])[H:9]>>[C:1]1([H:7])([H:9])[C@:2]([C:4]([C:5]#[N:6])([H:10])[H:11])([H:8])[O:3]1"
C       -1.40279532       0.30991155       0.30414827
C       -0.41038349      -0.68782732      -0.05141601
O       -0.92334250      -1.47207633       0.84262375
C        1.08995664      -0.41037087       0.00581070
C        1.48052515       0.87905138      -0.54918553
N        1.70287312       1.91161545      -0.99650350
H       -2.46765614       0.12520970       0.22706781
H       -0.96973072      -0.15196177      -1.13987337
H       -1.10178458       1.18486699       0.87727166
H        1.57228068      -1.21004842      -0.55982042
H        1.43005717      -0.47837037       1.03987666
11
Frame=12 idx=005343 GeodesicLength=0.9658125239225785 rxn_smarts="[C:1]([C:2](=[O:3])[C:4]([C:5]#[N:6])([H:10])[H:11])([H:7])([H:8])[H:9]>>[C:1]1([H:7])([H:9])[C@:2]([C:4]([C:5]#[N:6])([H:10])[H:11])([H:8])[O:3]1"
C       -1.40838909       0.29655939       0.29881436
C       -0.40475354      -0.69302528      -0.05571229
O       -0.92346884      -1.44954664       0.85855445
C        1.09297955      -0.41028066       0.00542963
C        1.48922907       0.87662380      -0.55193878
N        1.71512891       1.90684159      -1.00270078
H       -2.47338370       0.11317250       0.22008811
H       -0.98648054      -0.11878917      -1.13647332
H       -1.11054220       1.16569023       0.88219477
H        1.57729537      -1.21066880      -0.55811049
H        1.43238501      -0.47657694       1.03985434
11
Frame=13 idx=005343 GeodesicLength=1.046140507668398 rxn_smarts="[C:1]([C:2](=[O:3])[C:4]([C:5]#[N:6])([H:10])[H:11])([H:7])([H:8])[H:9]>>[C:1]1([H:7])([H:9])[C@:2]([C:4]([C:5]#[N:6])([H:10])[H:11])([H:8])[O:3]1"
C       -1.41397323       0.28327023       0.29372001
C       -0.39927158      -0.69810408      -0.05981436
O       -0.92333840      -1.42749757       0.87320377
C        1.09587519      -0.41014815       0.00514958
C        1.49791777       0.87408100      -0.55478181
N        1.72740169       1.90186025      -1.00910426
H       -2.47904196       0.10086284       0.21362640
H       -1.00294612      -0.08536851      -1.13234686
H       -1.11936463       1.14699268       0.88651041
H        1.58223145      -1.21132597      -0.55611256
H        1.43450982      -0.47462272       1.03994969
11
Frame=14 idx=005343 GeodesicLength=1.1264399629721873 rxn_smarts="[C:1]([C:2](=[O:3])[C:4]([C:5]#[N:6])([H:10])[H:11])([H:7])([H:8])[H:9]>>[C:1]1([H:7])([H:9])[C@:2]([C:4]([C:5]#[N:6])([H:10])[H:11])([H:8])[O:3]1"
C       -1.41956857       0.27004092       0.28882369
C       -0.39391759      -0.70308647      -0.06370820
O       -0.92303421      -1.40591751       0.88672296
C        1.09869741      -0.40998620       0.00493927
C        1.50665749       0.87140879      -0.55776927
N        1.73969803       1.89675006      -1.01560532
H       -2.48468796       0.08827713       0.20761303
H       -1.01921327      -0.05173923      -1.12750925
H       -1.12826080       1.12880100       0.89023615
H        1.58712214      -1.21204972      -0.55389006
H        1.43650733      -0.47249877       1.04014701
11
Frame=15 idx=005343 GeodesicLength=1.2067359878463657 rxn_smarts="[C:1]([C:2](=[O:3])[C:4]([C:5]#[N:6])([H:10])[H:11])([H:7])([H:8])[H:9]>>[C:1]1([H:7])([H:9])[C@:2]([C:4]([C:5]#[N:6])([H:10])[H:11])([H:8])[O:3]1"
C       -1.42515216       0.25685204       0.28409180
C       -0.38865639      -0.70795706      -0.06740257
O       -0.92254610      -1.38482563       0.89915082
C        1.10143491      -0.40977966       0.00480647
C        1.51539341       0.86861669      -0.56089296
N        1.75205867       1.89144941      -1.02229041
H       -2.49026762       0.07539553       0.20195075
H       -1.03532548      -0.01777163      -1.12190627
H       -1.13724734       1.11102764       0.89345249
H        1.59195650      -1.21282226      -0.55140040
H        1.43835161      -0.47018506       1.04044027
11
Frame=16 idx=005343 GeodesicLength=1.2870189927192486 rxn_smarts="[C:1]([C:2](=[O:3])[C:4]([C:5]#[N:6])([H:10])[H:11])([H:7])([H:8])[H:9]>>[C:1]1([H:7])([H:9])[C@:2]([C:4]([C:5]#[N:6])([H:10])[H:11])([H:8])[O:3]1"
C       -1.43073483       0.24368797       0.27949455
C       -0.38347503      -0.71272792      -0.07090315
O       -0.92193217      -1.36423093       0.91056387
C        1.10411798      -0.40952339       0.00474277
C        1.52415839       0.86570948      -0.56417420
N        1.76453036       1.88596119      -1.02918424
H       -2.49580616       0.06220026       0.19657030
H       -1.05134541       0.01658781      -1.11551558
H       -1.14634850       1.09363744       0.89622827
H        1.59676595      -1.21364892      -0.54865816
H        1.44006942      -0.46765299       1.04083559
