16
Frame=0 idx=006156 GeodesicLength=0.0 rxn_smarts="[O:1]([C:2]([C:3]1([H:10])[C:4]([H:11])([H:12])[C:5]([H:13])([H:14])[C:6]1([H:15])[H:16])([H:8])[H:9])[H:7]>>[O:1](/[C:2](=[C:3](/[C:4]([C:5]([C:6]([H:8])([H:15])[H:16])([H:13])[H:14])([H:11])[H:12])[H:10])[H:9])[H:7]"
O        2.38738541      -0.52530033       1.16638426
C        1.43810115       0.24311495       0.44165448
C        0.80715447      -0.51446242      -0.63923285
C       -0.61260160      -0.75348941      -0.92447043
C       -1.44939088      -0.07137586       0.16457147
C       -1.02386634       1.32631944       0.10304262
H        1.95659569      -1.33779360       1.44110004
H        0.62429314       0.71276458       1.05349636
H        1.99722318       1.11582459       0.09853228
H        1.50921862      -1.16915773      -1.15732880
H       -0.82539372      -1.81923534      -1.08991285
H       -0.93134702      -0.24587137      -1.84970525
H       -2.50848642      -0.24795512      -0.05839417
H       -1.25841225      -0.50521310       1.15330848
H       -1.11030669       1.97992012       0.96385988
H       -1.00016681       1.81191056      -0.86690555
16
Frame=1 idx=006156 GeodesicLength=0.11396104639744088 rxn_smarts="[O:1]([C:2]([C:3]1([H:10])[C:4]([H:11])([H:12])[C:5]([H:13])([H:14])[C:6]1([H:15])[H:16])([H:8])[H:9])[H:7]>>[O:1](/[C:2](=[C:3](/[C:4]([C:5]([C:6]([H:8])([H:15])[H:16])([H:13])[H:14])([H:11])[H:12])[H:10])[H:9])[H:7]"
O        2.39978312      -0.54534261       1.16651633
C        1.44025765       0.23210091       0.47030989
C        0.80177129      -0.47832729      -0.63301209
C       -0.61409554      -0.77129454      -0.89899119
C       -1.46489207      -0.05812276       0.15732801
C       -1.00232550       1.33097177       0.08053020
H        2.02442892      -1.41302771       1.33170611
H        0.60623702       0.71491041       1.08644841
H        1.98995734       1.12951640       0.17925537
H        1.50971172      -1.08919986      -1.19547363
H       -0.80380149      -1.84881568      -1.00026231
H       -0.94379849      -0.32293859      -1.85009642
H       -2.52190720      -0.21146148      -0.08934640
H       -1.30978018      -0.47898915       1.15752495
H       -1.11182282       1.99700568       0.92966716
H       -0.99972376       1.81301448      -0.89210439
16
Frame=2 idx=006156 GeodesicLength=0.22724992043987557 rxn_smarts="[O:1]([C:2]([C:3]1([H:10])[C:4]([H:11])([H:12])[C:5]([H:13])([H:14])[C:6]1([H:15])[H:16])([H:8])[H:9])[H:7]>>[O:1](/[C:2](=[C:3](/[C:4]([C:5]([C:6]([H:8])([H:15])[H:16])([H:13])[H:14])([H:11])[H:12])[H:10])[H:9])[H:7]"
O        2.41267588      -0.56584300       1.16480803
C        1.44127865       0.21850334       0.49845649
C        0.79454235      -0.44671457      -0.62343541
C       -0.61594542      -0.78869372      -0.87298089
C       -1.48186114      -0.04476308       0.14785467
C       -0.98107115       1.33442140       0.06004257
H        2.10272150      -1.47251440       1.21603139
H        0.58656175       0.71536047       1.11918511
H        1.98001136       1.13772535       0.25920714
H        1.50512656      -1.01402565      -1.22716840
H       -0.78433561      -1.87325801      -0.91099761
H       -0.95170153      -0.39994419      -1.84730763
H       -2.53482505      -0.17438012      -0.12622191
H       -1.36570275      -0.45234947       1.15840448
H       -1.11259290       2.01137003       0.89793006
H       -0.99488251       1.81510562      -0.91380810
16
Frame=3 idx=006156 GeodesicLength=0.3397488584198271 rxn_smarts="[O:1]([C:2]([C:3]1([H:10])[C:4]([H:11])([H:12])[C:5]([H:13])([H:14])[C:6]1([H:15])[H:16])([H:8])[H:9])[H:7]>>[O:1](/[C:2](=[C:3](/[C:4]([C:5]([C:6]([H:8])([H:15])[H:16])([H:13])[H:14])([H:11])[H:12])[H:10])[H:9])[H:7]"
O        2.42454897      -0.58855218       1.16206953
C        1.44186254       0.20265479       0.52574638
C        0.78608764      -0.41849783      -0.61180171
C       -0.61807137      -0.80579672      -0.84643588
C       -1.49951847      -0.03155562       0.13657889
C       -0.96000969       1.33672419       0.04153704
H        2.18683670      -1.51567439       1.09478150
H        0.56611916       0.71525681       1.15104201
H        1.96965664       1.14031966       0.33879296
H        1.49635016      -0.94286849      -1.25384800
H       -0.76694638      -1.89307598      -0.82162805
H       -0.95608992      -0.47733558      -1.84135229
H       -2.54637278      -0.13766989      -0.16766993
H       -1.42456218      -0.42535295       1.15613352
H       -1.11296614       2.02336245       0.86848404
H       -0.98692489       1.81806173      -0.93243001
16
Frame=4 idx=006156 GeodesicLength=0.45174732567824066 rxn_smarts="[O:1]([C:2]([C:3]1([H:10])[C:4]([H:11])([H:12])[C:5]([H:13])([H:14])[C:6]1([H:15])[H:16])([H:8])[H:9])[H:7]>>[O:1](/[C:2](=[C:3](/[C:4]([C:5]([C:6]([H:8])([H:15])[H:16])([H:13])[H:14])([H:11])[H:12])[H:10])[H:9])[H:7]"
O        2.43749436      -0.61173827       1.15729748
C        1.44138021       0.18377851       0.55274631
C        0.77590997      -0.39607875      -0.59683207
C       -0.62167922      -0.82295426      -0.81935727
C       -1.51862539      -0.01802644       0.12293597
C       -0.93871817       1.33782123       0.02525457
H        2.28306667      -1.53956287       0.96821559
H        0.54389293       0.71227977       1.18342925
H        1.95632121       1.13759371       0.41795575
H        1.48314334      -0.87762913      -1.27495196
H       -0.75469415      -1.90865209      -0.73299657
H       -0.95717122      -0.55456771      -1.83237931
H       -2.55688293      -0.09966255      -0.21502921
H       -1.48818350      -0.39763495       1.14984609
H       -1.11199089       2.03303827       0.84166996
H       -0.97326321       1.82199552      -0.94780457
16
Frame=5 idx=006156 GeodesicLength=0.5624784069333653 rxn_smarts="[O:1]([C:2]([C:3]1([H:10])[C:4]([H:11])([H:12])[C:5]([H:13])([H:14])[C:6]1([H:15])[H:16])([H:8])[H:9])[H:7]>>[O:1](/[C:2](=[C:3](/[C:4]([C:5]([C:6]([H:8])([H:15])[H:16])([H:13])[H:14])([H:11])[H:12])[H:10])[H:9])[H:7]"
O        2.44963733      -0.63865458       1.14894939
C        1.44133611       0.16301908       0.57797220
C        0.76530475      -0.37607624      -0.58137966
C       -0.62540825      -0.83984425      -0.79197536
C       -1.53724775      -0.00503673       0.10785993
C       -0.91727757       1.33754169       0.01128467
H        2.37686181      -1.54457373       0.84181471
H        0.52194126       0.70894857       1.21452082
H        1.94413832       1.12932959       0.49649092
H        1.46671384      -0.81631631      -1.29288147
H       -0.74483266      -1.92003878      -0.64460620
H       -0.95593740      -0.63212181      -1.82012298
H       -2.56445603      -0.06284729      -0.26553320
H       -1.55267887      -0.37000652       1.14010604
H       -1.11074324       2.04019834       0.81745613
H       -0.95735165       1.82647896      -0.95995593
16
Frame=6 idx=006156 GeodesicLength=0.6727729814608515 rxn_smarts="[O:1]([C:2]([C:3]1([H:10])[C:4]([H:11])([H:12])[C:5]([H:13])([H:14])[C:6]1([H:15])[H:16])([H:8])[H:9])[H:7]>>[O:1](/[C:2](=[C:3](/[C:4]([C:5]([C:6]([H:8])([H:15])[H:16])([H:13])[H:14])([H:11])[H:12])[H:10])[H:9])[H:7]"
O        2.46353154      -0.66622306       1.13709560
C        1.44059946       0.13896590       0.60249655
C        0.75318583      -0.36248057      -0.56327311
C       -0.63142806      -0.85709877      -0.76420086
C       -1.55689499       0.00839737       0.09048003
C       -0.89512302       1.33590607      -0.00026355
H        2.48125633      -1.52679578       0.71350605
H        0.49845442       0.70191303       1.24637725
H        1.92920283       1.11565362       0.57460208
H        1.44627988      -0.76197001      -1.30631210
H       -0.74201140      -1.92801103      -0.55749197
H       -0.95308784      -0.70935207      -1.80484561
H       -2.57002729      -0.02442139      -0.32130349
H       -1.62119755      -0.34138150       1.12582892
H       -1.10739850       2.04518440       0.79611713
H       -0.93534164       1.83171379      -0.96881290
16
Frame=7 idx=006156 GeodesicLength=0.7821087920079626 rxn_smarts="[O:1]([C:2]([C:3]1([H:10])[C:4]([H:11])([H:12])[C:5]([H:13])([H:14])[C:6]1([H:15])[H:16])([H:8])[H:9])[H:7]>>[O:1](/[C:2](=[C:3](/[C:4]([C:5]([C:6]([H:8])([H:15])[H:16])([H:13])[H:14])([H:11])[H:12])[H:10])[H:9])[H:7]"
O        2.47934920      -0.69575098       1.11795386
C        1.44082181       0.11335683       0.62475509
C        0.74106068      -0.35086979      -0.54543002
C       -0.63760677      -0.87414755      -0.73619427
C       -1.57545889       0.02122553       0.07166444
C       -0.87259600       1.33280825      -0.00931158
H        2.57714260      -1.49133581       0.59080747
H        0.47553201       0.69378887       1.27725083
H        1.91505633       1.09709692       0.65180413
H        1.42335010      -0.71180303      -1.31758053
H       -0.74188088      -1.93220809      -0.47085677
H       -0.94887784      -0.78684803      -1.78610230
H       -2.57157886       0.01266639      -0.37974912
H       -1.68974209      -0.31290908       1.10759270
H       -1.10355581       2.04759111       0.77763520
H       -0.91101561       1.83733846      -0.97423913
16
Frame=8 idx=006156 GeodesicLength=0.891226703650069 rxn_smarts="[O:1]([C:2]([C:3]1([H:10])[C:4]([H:11])([H:12])[C:5]([H:13])([H:14])[C:6]1([H:15])[H:16])([H:8])[H:9])[H:7]>>[O:1](/[C:2](=[C:3](/[C:4]([C:5]([C:6]([H:8])([H:15])[H:16])([H:13])[H:14])([H:11])[H:12])[H:10])[H:9])[H:7]"
O        2.49765560      -0.72562433       1.09257485
C        1.44151419       0.08530355       0.64525547
C        0.72834193      -0.34338572      -0.52699610
C       -0.64534902      -0.89146601      -0.70787151
C       -1.59381003       0.03418700       0.05094432
C       -0.84948113       1.32842663      -0.01590049
H        2.67307222      -1.43597052       0.47161962
H        0.45226278       0.68301958       1.30819703
H        1.90007921       1.07332576       0.72863388
H        1.39760732      -0.66791352      -1.32625254
H       -0.74698352      -1.93321969      -0.38492339
H       -0.94436858      -0.86471393      -1.76400480
H       -2.56962422       0.05003719      -0.44189721
H       -1.75992583      -0.28347846       1.08479733
H       -1.09825271       2.04796446       0.76212689
H       -0.88273822       1.84350800      -0.97630335
16
Frame=9 idx=006156 GeodesicLength=1.0001418341375354 rxn_smarts="[O:1]([C:2]([C:3]1([H:10])[C:4]([H:11])([H:12])[C:5]([H:13])([H:14])[C:6]1([H:15])[H:16])([H:8])[H:9])[H:7]>>[O:1](/[C:2](=[C:3](/[C:4]([C:5]([C:6]([H:8])([H:15])[H:16])([H:13])[H:14])([H:11])[H:12])[H:10])[H:9])[H:7]"
O        2.51750221      -0.75584358       1.06031961
C        1.44219067       0.05412587       0.66373977
C        0.71476326      -0.34058405      -0.50808590
C       -0.65521224      -0.90907445      -0.67898022
C       -1.61171119       0.04758283       0.02825337
C       -0.82525232       1.32250388      -0.02014425
H        2.77067611      -1.35691069       0.35623912
H        0.42822702       0.66858838       1.33922308
H        1.88364626       1.04325080       0.80535447
H        1.36887466      -0.63134812      -1.33240805
H       -0.75823731      -1.93097109      -0.29936129
H       -0.94034496      -0.94296129      -1.73805542
H       -2.56334945       0.08816086      -0.50758400
H       -1.83169226      -0.25251579       1.05702101
H       -1.09052699       2.04609067       0.74942292
H       -0.84955344       1.84990576      -0.97495423
16
Frame=10 idx=006156 GeodesicLength=1.109124506563833 rxn_smarts="[O:1]([C:2]([C:3]1([H:10])[C:4]([H:11])([H:12])[C:5]([H:13])([H:14])[C:6]1([H:15])[H:16])([H:8])[H:9])[H:7]>>[O:1](/[C:2](=[C:3](/[C:4]([C:5]([C:6]([H:8])([H:15])[H:16])([H:13])[H:14])([H:11])[H:12])[H:10])[H:9])[H:7]"
O        2.54107597      -0.78463338       1.01882536
C        1.44379644       0.02042794       0.67997582
C        0.70095602      -0.34106823      -0.48956490
C       -0.66651285      -0.92691349      -0.64964798
C       -1.62863681       0.06117389       0.00368127
C       -0.80029120       1.31519354      -0.02192525
H        2.86224310      -1.25867888       0.24845316
H        0.40419899       0.65143074       1.37019016
H        1.86682292       1.00713008       0.88184262
H        1.33800705      -0.60137672      -1.33713225
H       -0.77409349      -1.92538027      -0.21410725
H       -0.93716163      -1.02193746      -1.70818301
H       -2.55222745       0.12609308      -0.57630868
H       -1.90385628      -0.22011312       1.02420221
H       -1.08139760       2.04215305       0.73974296
H       -0.81292316       1.85649921      -0.97004423
16
Frame=11 idx=006156 GeodesicLength=1.217813929146519 rxn_smarts="[O:1]([C:2]([C:3]1([H:10])[C:4]([H:11])([H:12])[C:5]([H:13])([H:14])[C:6]1([H:15])[H:16])([H:8])[H:9])[H:7]>>[O:1](/[C:2](=[C:3](/[C:4]([C:5]([C:6]([H:8])([H:15])[H:16])([H:13])[H:14])([H:11])[H:12])[H:10])[H:9])[H:7]"
O        2.56970597      -0.80790780       0.96702396
C        1.44699035      -0.01450874       0.69365991
C        0.68754646      -0.34286467      -0.47172096
C       -0.67790811      -0.94463267      -0.61951717
C       -1.64363238       0.07438613      -0.02264728
C       -0.77495832       1.30647328      -0.02115618
H        2.93826563      -1.15123708       0.14956110
H        0.38072584       0.63276954       1.40065286
H        1.85005230       0.96586027       0.95744169
H        1.30569664      -0.57534110      -1.34107319
H       -0.79220801      -1.91591847      -0.12865944
H       -0.93396119      -1.10154211      -1.67363919
H       -2.53487608       0.16244864      -0.64765298
H       -1.97511924      -0.18692695       0.98614696
H       -1.07229879       2.03579633       0.73291963
H       -0.77402108       1.86314540      -0.96133971
16
Frame=12 idx=006156 GeodesicLength=1.3263292965977054 rxn_smarts="[O:1]([C:2]([C:3]1([H:10])[C:4]([H:11])([H:12])[C:5]([H:13])([H:14])[C:6]1([H:15])[H:16])([H:8])[H:9])[H:7]>>[O:1](/[C:2](=[C:3](/[C:4]([C:5]([C:6]([H:8])([H:15])[H:16])([H:13])[H:14])([H:11])[H:12])[H:10])[H:9])[H:7]"
O        2.60102088      -0.82648509       0.90652025
C        1.45126824      -0.05183663       0.70455003
C        0.67406300      -0.34741496      -0.45471529
C       -0.69061269      -0.96232434      -0.58882723
C       -1.65696092       0.08772844      -0.05058451
C       -0.74903191       1.29638542      -0.01822536
H        3.00571272      -1.02887547       0.05942568
H        0.35757791       0.61216500       1.43067344
H        1.83319814       0.91757898       1.03231290
H        1.27174208      -0.55574927      -1.34430158
H       -0.81421045      -1.90271180      -0.04381678
H       -0.93234159      -1.18116070      -1.63461087
H       -2.51176892       0.19770336      -0.72069996
H       -2.04514161      -0.15211087       0.94296549
H       -1.06215367       2.02755097       0.72857791
H       -0.73236120       1.86955696      -0.94924410
16
Frame=13 idx=006156 GeodesicLength=1.4348342418188564 rxn_smarts="[O:1]([C:2]([C:3]1([H:10])[C:4]([H:11])([H:12])[C:5]([H:13])([H:14])[C:6]1([H:15])[H:16])([H:8])[H:9])[H:7]>>[O:1](/[C:2](=[C:3](/[C:4]([C:5]([C:6]([H:8])([H:15])[H:16])([H:13])[H:14])([H:11])[H:12])[H:10])[H:9])[H:7]"
O        2.63540265      -0.83761537       0.83704425
C        1.45696122      -0.09129798       0.71271378
C        0.66076057      -0.35407922      -0.43845397
C       -0.70415467      -0.97992684      -0.55722326
C       -1.66818053       0.10102435      -0.08024346
C       -0.72256599       1.28490074      -0.01311455
H        3.06064433      -0.89585299      -0.02238297
H        0.33500194       0.59013779       1.46028815
H        1.81654817       0.86187058       1.10660062
H        1.23635010      -0.54133952      -1.34715474
H       -0.83923030      -1.88541463       0.04089248
H       -0.93216428      -1.26098205      -1.59049222
H       -2.48201073       0.23136668      -0.79555342
H       -2.11351991      -0.11565529       0.89422759
H       -1.05167238       2.01733898       0.72650422
H       -0.68817018       1.87552478      -0.93365251
16
Frame=14 idx=006156 GeodesicLength=1.54332636257547 rxn_smarts="[O:1]([C:2]([C:3]1([H:10])[C:4]([H:11])([H:12])[C:5]([H:13])([H:14])[C:6]1([H:15])[H:16])([H:8])[H:9])[H:7]>>[O:1](/[C:2](=[C:3](/[C:4]([C:5]([C:6]([H:8])([H:15])[H:16])([H:13])[H:14])([H:11])[H:12])[H:10])[H:9])[H:7]"
O        2.67155204      -0.84022833       0.75917505
C        1.46396237      -0.13336744       0.71773144
C        0.64755849      -0.36308989      -0.42327253
C       -0.71880486      -0.99728805      -0.52483089
C       -1.67702757       0.11433823      -0.11135340
C       -0.69545134       1.27198645      -0.00612260
H        3.10355460      -0.75163614      -0.09451779
H        0.31327893       0.56696067       1.48930217
H        1.80018634       0.79739571       1.17980266
H        1.19956574      -0.53261616      -1.35000165
H       -0.86727792      -1.86383411       0.12494525
H       -0.93418389      -1.34032769      -1.54129544
H       -2.44558096       0.26310515      -0.87115034
H       -2.17918973      -0.07743090       0.84019492
H       -1.04052559       2.00534202       0.72627262
H       -0.64161665       1.88069050      -0.91487948
16
Frame=15 idx=006156 GeodesicLength=1.651811332164937 rxn_smarts="[O:1]([C:2]([C:3]1([H:10])[C:4]([H:11])([H:12])[C:5]([H:13])([H:14])[C:6]1([H:15])[H:16])([H:8])[H:9])[H:7]>>[O:1](/[C:2](=[C:3](/[C:4]([C:5]([C:6]([H:8])([H:15])[H:16])([H:13])[H:14])([H:11])[H:12])[H:10])[H:9])[H:7]"
O        2.70886353      -0.83176712       0.67403694
C        1.47248434      -0.17795157       0.71947395
C        0.63464183      -0.37422065      -0.40916788
C       -0.73432577      -1.01427751      -0.49170342
C       -1.68314168       0.12747312      -0.14374042
C       -0.66770415       1.25763292       0.00257170
H        3.13212385      -0.59957401      -0.15706516
H        0.29283162       0.54340527       1.51769166
H        1.78433457       0.72342058       1.25152009
H        1.16161512      -0.52888605      -1.35304772
H       -0.89766746      -1.83785453       0.20790740
H       -0.93855890      -1.41857844      -1.48707368
H       -2.40228073       0.29237649      -0.94677198
H       -2.24119937      -0.03761743       0.78103968
H       -1.02900690       1.99167567       0.72746750
H       -0.59300991       1.88474326      -0.89313868
16
Frame=16 idx=006156 GeodesicLength=1.7602368924634146 rxn_smarts="[O:1]([C:2]([C:3]1([H:10])[C:4]([H:11])([H:12])[C:5]([H:13])([H:14])[C:6]1([H:15])[H:16])([H:8])[H:9])[H:7]>>[O:1](/[C:2](=[C:3](/[C:4]([C:5]([C:6]([H:8])([H:15])[H:16])([H:13])[H:14])([H:11])[H:12])[H:10])[H:9])[H:7]"
O        2.74548425      -0.81105030       0.58322732
C        1.48244790      -0.22522063       0.71754391
C        0.62206793      -0.38732866      -0.39643944
C       -0.75060541      -1.03065988      -0.45817389
C       -1.68617384       0.14021533      -0.17683146
C       -0.63924543       1.24184066       0.01240304
H        3.14558239      -0.44089102      -0.20874415
H        0.27433440       0.52058143       1.54512057
H        1.76928861       0.63854611       1.32106750
H        1.12274690      -0.52983960      -1.35655791
H       -0.92968639      -1.80756808       0.28882390
H       -0.94574501      -1.49458148      -1.42835737
H       -2.35263201       0.31869206      -1.02078066
H       -2.29797164       0.00345616       0.71780745
H       -1.01696169       1.97665022       0.72917060
H       -0.54293096       1.88715767      -0.86927942
