16
Frame=0 idx=010735 GeodesicLength=0.0 rxn_smarts="[N:1]([C:2](=[O:3])[C:4]([C:5]([C:6]([O:7][H:16])([H:14])[H:15])([H:12])[H:13])([H:10])[H:11])([H:8])[H:9]>>[N+:1]([C:2]([O-:3])=[C:4]([H:10])[H:11])([C:5]([C:6]([O:7][H:16])([H:14])[H:15])([H:12])[H:13])([H:8])[H:9]"
N        1.10872746       0.25857710       0.54705634
C        1.11350407      -1.16877877       0.91985390
O        1.25753358      -1.42302573       2.10440873
C        0.76367530      -1.97245503      -0.16323721
C       -0.92907262      -0.11019639       0.01768473
C       -1.08644589       1.14537508      -0.75295333
O       -0.64193814       2.26896198      -0.04004200
H        1.20633072       0.85376013       1.35820160
H        1.76419765       0.51817426      -0.17749653
H        0.90293377      -1.61051070      -1.17381211
H        0.66691603      -3.03910238      -0.01447641
H       -1.35193221      -0.96294042      -0.48625540
H       -1.15120000      -0.07545796       1.07681406
H       -0.59429723       1.05182359      -1.72923337
H       -2.17180658       1.20704225      -0.94858578
H       -0.85712589       3.05875306      -0.53792721
16
Frame=1 idx=010735 GeodesicLength=0.09298822406592568 rxn_smarts="[N:1]([C:2](=[O:3])[C:4]([C:5]([C:6]([O:7][H:16])([H:14])[H:15])([H:12])[H:13])([H:10])[H:11])([H:8])[H:9]>>[N+:1]([C:2]([O-:3])=[C:4]([H:10])[H:11])([C:5]([C:6]([O:7][H:16])([H:14])[H:15])([H:12])[H:13])([H:8])[H:9]"
N        1.08511156       0.26548824       0.60354296
C        1.13111550      -1.17413575       0.91527627
O        1.36539324      -1.47716502       2.07378570
C        0.74874805      -1.94772042      -0.17930081
C       -0.92771199      -0.11040767       0.02967860
C       -1.09465807       1.13313175      -0.76290619
O       -0.63321992       2.26840220      -0.07959332
H        1.16978649       0.83210006       1.43634008
H        1.72882233       0.57716851      -0.11051029
H        0.87662589      -1.58695055      -1.19152471
H        0.66908193      -3.01889989      -0.05258706
H       -1.38153511      -0.96280797      -0.44968470
H       -1.16899178      -0.05926262       1.08459960
H       -0.61648442       1.01648876      -1.74356279
H       -2.18125740       1.20293893      -0.94450645
H       -0.77082630       3.04163145      -0.62904687
16
Frame=2 idx=010735 GeodesicLength=0.18501278186385722 rxn_smarts="[N:1]([C:2](=[O:3])[C:4]([C:5]([C:6]([O:7][H:16])([H:14])[H:15])([H:12])[H:13])([H:10])[H:11])([H:8])[H:9]>>[N+:1]([C:2]([O-:3])=[C:4]([H:10])[H:11])([C:5]([C:6]([O:7][H:16])([H:14])[H:15])([H:12])[H:13])([H:8])[H:9]"
N        1.05916548       0.27099559       0.66027972
C        1.14841843      -1.17718059       0.91017521
O        1.48409046      -1.52272945       2.03141696
C        0.73318838      -1.92313681      -0.19226618
C       -0.92738276      -0.11040232       0.04002211
C       -1.10148827       1.12161092      -0.77355606
O       -0.62272547       2.26672775      -0.11883850
H        1.12967017       0.80703183       1.51439036
H        1.69040210       0.63466529      -0.03978813
H        0.84872921      -1.56671626      -1.20726623
H        0.66777020      -2.99768613      -0.08480298
H       -1.40959530      -0.96119068      -0.41651529
H       -1.19009344      -0.04281063       1.08957567
H       -0.63646881       0.98240054      -1.75749924
H       -2.18870227       1.20118015      -0.94287234
H       -0.68497813       3.01724079      -0.71245508
16
Frame=3 idx=010735 GeodesicLength=0.275567193638052 rxn_smarts="[N:1]([C:2](=[O:3])[C:4]([C:5]([C:6]([O:7][H:16])([H:14])[H:15])([H:12])[H:13])([H:10])[H:11])([H:8])[H:9]>>[N+:1]([C:2]([O-:3])=[C:4]([H:10])[H:11])([C:5]([C:6]([O:7][H:16])([H:14])[H:15])([H:12])[H:13])([H:8])[H:9]"
N        1.03090281       0.27470299       0.71718406
C        1.16569946      -1.17806347       0.90456056
O        1.61247931      -1.55701810       1.97524210
C        0.71703721      -1.89919006      -0.20202524
C       -0.92790042      -0.11026106       0.04886050
C       -1.10651851       1.11081601      -0.78471425
O       -0.61019029       2.26386570      -0.15721037
H        1.08613284       0.77771166       1.59225481
H        1.64875814       0.69024807       0.03468401
H        0.81894898      -1.55067629      -1.22097299
H        0.66292321      -2.97611231      -0.11019074
H       -1.43617941      -0.95814272      -0.38700335
H       -1.21431976      -0.02612092       1.09170580
H       -0.65345488       0.94979586      -1.77079352
H       -2.19367674       1.20165144      -0.94385461
H       -0.60064193       2.98679320      -0.78772677
16
Frame=4 idx=010735 GeodesicLength=0.3646777150691697 rxn_smarts="[N:1]([C:2](=[O:3])[C:4]([C:5]([C:6]([O:7][H:16])([H:14])[H:15])([H:12])[H:13])([H:10])[H:11])([H:8])[H:9]>>[N+:1]([C:2]([O-:3])=[C:4]([H:10])[H:11])([C:5]([C:6]([O:7][H:16])([H:14])[H:15])([H:12])[H:13])([H:8])[H:9]"
N        1.00068050       0.27682403       0.77441645
C        1.18405634      -1.17648054       0.89793117
O        1.74621984      -1.57841092       1.90436602
C        0.70079438      -1.87579133      -0.20920255
C       -0.92915499      -0.11030337       0.05686619
C       -1.11001487       1.10039471      -0.79625253
O       -0.59598192       2.25978102      -0.19442119
H        1.04023734       0.74349852       1.67032124
H        1.60390927       0.74453634       0.11316137
H        0.78709775      -1.53871253      -1.23333423
H        0.65507940      -2.95445967      -0.12876382
H       -1.46167651      -0.95434089      -0.36030490
H       -1.24108740      -0.00933774       1.09169415
H       -0.66787801       0.91830150      -1.78355024
H       -2.19659322       1.20362904      -0.94729393
H       -0.51568790       2.95087182      -0.85563320
16
Frame=5 idx=010735 GeodesicLength=0.45194795846938784 rxn_smarts="[N:1]([C:2](=[O:3])[C:4]([C:5]([C:6]([O:7][H:16])([H:14])[H:15])([H:12])[H:13])([H:10])[H:11])([H:8])[H:9]>>[N+:1]([C:2]([O-:3])=[C:4]([H:10])[H:11])([C:5]([C:6]([O:7][H:16])([H:14])[H:15])([H:12])[H:13])([H:8])[H:9]"
N        0.96872295       0.27754570       0.83136262
C        1.20461181      -1.17119988       0.88829045
O        1.87720949      -1.58565993       1.81950147
C        0.68510146      -1.85200704      -0.21487394
C       -0.93079321      -0.11042595       0.06501498
C       -1.11207578       1.08959136      -0.80753037
O       -0.58049648       2.25371761      -0.23046769
H        0.99281421       0.70372764       1.74769875
H        1.55568340       0.79763836       0.19544389
H        0.75298201      -1.53023329      -1.24499938
H        0.64650246      -2.93170331      -0.14149964
H       -1.48592938      -0.94978289      -0.33459532
H       -1.26946797       0.00817991       1.09028994
H       -0.68023025       0.88667584      -1.79514739
H       -2.19748155       1.20615259      -0.95197931
H       -0.42715317       2.90778328      -0.91650904
16
Frame=6 idx=010735 GeodesicLength=0.537645035274683 rxn_smarts="[N:1]([C:2](=[O:3])[C:4]([C:5]([C:6]([O:7][H:16])([H:14])[H:15])([H:12])[H:13])([H:10])[H:11])([H:8])[H:9]>>[N+:1]([C:2]([O-:3])=[C:4]([H:10])[H:11])([C:5]([C:6]([O:7][H:16])([H:14])[H:15])([H:12])[H:13])([H:8])[H:9]"
N        0.93566057       0.27595401       0.88776327
C        1.22764616      -1.16275614       0.87556746
O        2.00602301      -1.57612258       1.72143918
C        0.66942609      -1.82963993      -0.21836965
C       -0.93253178      -0.11077986       0.07256350
C       -1.11177739       1.07925192      -0.81871839
O       -0.56206681       2.24643925      -0.26479407
H        0.94459985       0.65751087       1.82383093
H        1.50383102       0.84877910       0.28105754
H        0.71532157      -1.52778663      -1.25554511
H        0.63701895      -2.90998337      -0.14638236
H       -1.50895752      -0.94443276      -0.31174655
H       -1.29893050       0.02574303       1.08688867
H       -0.68916214       0.85650248      -1.80590864
H       -2.19545109       1.21035529      -0.95850111
H       -0.34064997       2.86096530      -0.96914468
16
Frame=7 idx=010735 GeodesicLength=0.622359191446743 rxn_smarts="[N:1]([C:2](=[O:3])[C:4]([C:5]([C:6]([O:7][H:16])([H:14])[H:15])([H:12])[H:13])([H:10])[H:11])([H:8])[H:9]>>[N+:1]([C:2]([O-:3])=[C:4]([H:10])[H:11])([C:5]([C:6]([O:7][H:16])([H:14])[H:15])([H:12])[H:13])([H:8])[H:9]"
N        0.90149784       0.27218622       0.94365830
C        1.25324884      -1.14986519       0.85827054
O        2.12893591      -1.54957368       1.61099568
C        0.65379584      -1.80825227      -0.22029878
C       -0.93463152      -0.11125226       0.08016652
C       -1.10937984       1.06903725      -0.82967864
O       -0.54093541       2.23771564      -0.29757798
H        0.89655037       0.60407624       1.89850426
H        1.44780210       0.89815350       0.37054754
H        0.67332272      -1.53123488      -1.26509539
H        0.62935272      -2.88894277      -0.14435225
H       -1.53127139      -0.93839568      -0.29055846
H       -1.32917698       0.04385738       1.08211643
H       -0.69517963       0.82696337      -1.81574378
H       -2.19074872       1.21587773      -0.96661000
H       -0.25318285       2.80964939      -1.01434398
16
Frame=8 idx=010735 GeodesicLength=0.7066424741439324 rxn_smarts="[N:1]([C:2](=[O:3])[C:4]([C:5]([C:6]([O:7][H:16])([H:14])[H:15])([H:12])[H:13])([H:10])[H:11])([H:8])[H:9]>>[N+:1]([C:2]([O-:3])=[C:4]([H:10])[H:11])([C:5]([C:6]([O:7][H:16])([H:14])[H:15])([H:12])[H:13])([H:8])[H:9]"
N        0.86620898       0.26594844       0.99877886
C        1.28125615      -1.13126438       0.83486918
O        2.24433193      -1.50414558       1.48852105
C        0.63803636      -1.78796630      -0.22074083
C       -0.93727307      -0.11186567       0.08785793
C       -1.10471401       1.05896326      -0.84024436
O       -0.51652735       2.22735906      -0.32865988
H        0.84879237       0.54219617       1.97099655
H        1.38676158       0.94556555       0.46435639
H        0.62593054      -1.54141175      -1.27316383
H        0.62504395      -2.86854378      -0.13507627
H       -1.55319048      -0.93165348      -0.27101516
H       -1.36001111       0.06250322       1.07600881
H       -0.69828497       0.79799718      -1.82454078
H       -2.18309596       1.22307601      -0.97589580
H       -0.16326492       2.75324206      -1.05205187
16
Frame=9 idx=010735 GeodesicLength=0.7915980341378066 rxn_smarts="[N:1]([C:2](=[O:3])[C:4]([C:5]([C:6]([O:7][H:16])([H:14])[H:15])([H:12])[H:13])([H:10])[H:11])([H:8])[H:9]>>[N+:1]([C:2]([O-:3])=[C:4]([H:10])[H:11])([C:5]([C:6]([O:7][H:16])([H:14])[H:15])([H:12])[H:13])([H:8])[H:9]"
N        0.82966217       0.25681885       1.05362537
C        1.31113128      -1.10533611       0.80378369
O        2.35114219      -1.43832552       1.35295248
C        0.62183214      -1.76889153      -0.21960701
C       -0.94084313      -0.11245283       0.09589904
C       -1.09730228       1.04894073      -0.85060320
O       -0.48754350       2.21498020      -0.35840430
H        0.80225958       0.46990603       2.04132050
H        1.31932318       0.99076554       0.56395571
H        0.57198223      -1.55922882      -1.27886667
H        0.62582883      -2.84863985      -0.11821557
H       -1.57535578      -0.92402193      -0.25276858
H       -1.39146926       0.08230696       1.06880606
H       -0.69805324       0.76902945      -1.83244751
H       -2.17185203       1.23244373      -0.98677173
H       -0.07074237       2.69170511      -1.08265827
16
Frame=10 idx=010735 GeodesicLength=0.8784259912471808 rxn_smarts="[N:1]([C:2](=[O:3])[C:4]([C:5]([C:6]([O:7][H:16])([H:14])[H:15])([H:12])[H:13])([H:10])[H:11])([H:8])[H:9]>>[N+:1]([C:2]([O-:3])=[C:4]([H:10])[H:11])([C:5]([C:6]([O:7][H:16])([H:14])[H:15])([H:12])[H:13])([H:8])[H:9]"
N        0.79189111       0.24430998       1.10820926
C        1.34086072      -1.07034518       0.76409218
O        2.44621384      -1.35055548       1.20408310
C        0.60507411      -1.75079023      -0.21678202
C       -0.94581780      -0.11295685       0.10467420
C       -1.08668800       1.03870544      -0.86062707
O       -0.45211254       2.19953438      -0.38693688
H        0.75842276       0.38598118       2.10835217
H        1.24442186       1.03235445       0.66984167
H        0.51136947      -1.58476127      -1.28081299
H        0.63433267      -2.82842437      -0.09450781
H       -1.59832462      -0.91540033      -0.23540014
H       -1.42356315       0.10383828       1.06088048
H       -0.69457425       0.73924755      -1.83941353
H       -2.15628689       1.24459047      -0.99886270
H        0.02478072       2.62467198      -1.10678991
16
Frame=11 idx=010735 GeodesicLength=0.9713309898704248 rxn_smarts="[N:1]([C:2](=[O:3])[C:4]([C:5]([C:6]([O:7][H:16])([H:14])[H:15])([H:12])[H:13])([H:10])[H:11])([H:8])[H:9]>>[N+:1]([C:2]([O-:3])=[C:4]([H:10])[H:11])([C:5]([C:6]([O:7][H:16])([H:14])[H:15])([H:12])[H:13])([H:8])[H:9]"
N        0.75214955       0.22771717       1.16305496
C        1.36821978      -1.02376180       0.71434941
O        2.52696519      -1.23593421       1.03906333
C        0.58754329      -1.73348540      -0.21182685
C       -0.95327640      -0.11335938       0.11454146
C       -1.07242381       1.02810613      -0.87006621
O       -0.40820949       2.17989116      -0.41426751
H        0.71863505       0.28846843       2.17118719
H        1.15913685       1.06912734       0.78341757
H        0.44266737      -1.61859684      -1.27697486
H        0.65425985      -2.80679352      -0.06461548
H       -1.62313107      -0.90572441      -0.21886211
H       -1.45698490       0.12764529       1.05248184
H       -0.68812074       0.70784080      -1.84513252
H       -2.13536199       1.26081192      -1.01188479
H        0.12793147       2.54804734      -1.12446543
16
Frame=12 idx=010735 GeodesicLength=1.074529543617979 rxn_smarts="[N:1]([C:2](=[O:3])[C:4]([C:5]([C:6]([O:7][H:16])([H:14])[H:15])([H:12])[H:13])([H:10])[H:11])([H:8])[H:9]>>[N+:1]([C:2]([O-:3])=[C:4]([H:10])[H:11])([C:5]([C:6]([O:7][H:16])([H:14])[H:15])([H:12])[H:13])([H:8])[H:9]"
N        0.71165360       0.20721753       1.21633406
C        1.38836279      -0.96605984       0.65763791
O        2.58549211      -1.09441206       0.86259984
C        0.57027043      -1.71631034      -0.20488865
C       -0.96359782      -0.11399024       0.12568157
C       -1.05486662       1.01691327      -0.87822089
O       -0.35422705       2.15423809      -0.43975574
H        0.68556350       0.18160014       2.22585587
H        1.06479797       1.09745830       0.89962040
H        0.36946025      -1.65826904      -1.26565750
H        0.68818791      -2.78196985      -0.03282479
H       -1.64999088      -0.89542239      -0.20306645
H       -1.49115509       0.15338634       1.04413423
H       -0.68070962       0.67458734      -1.84950864
H       -2.10902507       1.28205215      -1.02363937
H        0.23978360       2.45898059      -1.13430184
16
Frame=13 idx=010735 GeodesicLength=1.1939694662330873 rxn_smarts="[N:1]([C:2](=[O:3])[C:4]([C:5]([C:6]([O:7][H:16])([H:14])[H:15])([H:12])[H:13])([H:10])[H:11])([H:8])[H:9]>>[N+:1]([C:2]([O-:3])=[C:4]([H:10])[H:11])([C:5]([C:6]([O:7][H:16])([H:14])[H:15])([H:12])[H:13])([H:8])[H:9]"
N        0.67197567       0.18386391       1.26665233
C        1.39805200      -0.89993869       0.59923268
O        2.61516892      -0.93122723       0.68347446
C        0.55472590      -1.69797326      -0.19724426
C       -0.97664491      -0.11509744       0.13835249
C       -1.03484616       1.00484200      -0.88436353
O       -0.28967106       2.12081056      -0.46328958
H        0.66172313       0.07245597       2.27020766
H        0.96403653       1.11518696       1.01214599
H        0.29684339      -1.69905149      -1.24733446
H        0.73604662      -2.75181609      -0.00572840
H       -1.67852436      -0.88501985      -0.18767504
H       -1.52517100       0.18065717       1.03654729
H       -0.67525368       0.63949489      -1.85254273
H       -2.07754513       1.30870499      -1.03167785
H        0.35908413       2.35410759      -1.13675706
16
Frame=14 idx=010735 GeodesicLength=1.334725121773499 rxn_smarts="[N:1]([C:2](=[O:3])[C:4]([C:5]([C:6]([O:7][H:16])([H:14])[H:15])([H:12])[H:13])([H:10])[H:11])([H:8])[H:9]>>[N+:1]([C:2]([O-:3])=[C:4]([H:10])[H:11])([C:5]([C:6]([O:7][H:16])([H:14])[H:15])([H:12])[H:13])([H:8])[H:9]"
N        0.63498953       0.15950022       1.31233024
C        1.39699973      -0.82990901       0.54461818
O        2.61349749      -0.75397621       0.50998286
C        0.54193006      -1.67782722      -0.19001049
C       -0.99141139      -0.11694145       0.15212370
C       -1.01326464       0.99191423      -0.88820689
O       -0.21667648       2.07905014      -0.48423395
H        0.64759039      -0.03109015       2.30336036
H        0.86126434       1.12234297       1.11415900
H        0.22925635      -1.73748170      -1.22349398
H        0.79380439      -2.71548520       0.01241982
H       -1.70774053      -0.87493114      -0.17287687
H       -1.55769637       0.20832570       1.02976206
H       -0.67306909       0.60385636      -1.85433035
H       -2.04143540       1.33989975      -1.03492908
H        0.48196161       2.23275272      -1.13067460
16
Frame=15 idx=010735 GeodesicLength=1.5009976088323933 rxn_smarts="[N:1]([C:2](=[O:3])[C:4]([C:5]([C:6]([O:7][H:16])([H:14])[H:15])([H:12])[H:13])([H:10])[H:11])([H:8])[H:9]>>[N+:1]([C:2]([O-:3])=[C:4]([H:10])[H:11])([C:5]([C:6]([O:7][H:16])([H:14])[H:15])([H:12])[H:13])([H:8])[H:9]"
N        0.60223001       0.13593942       1.35239789
C        1.38763678      -0.75978226       0.49650685
O        2.58195637      -0.57137515       0.34775183
C        0.53206442      -1.65591148      -0.18390068
C       -1.00660193      -0.11949760       0.16635227
C       -0.99064853       0.97835294      -0.89002900
O       -0.13891446       2.02983699      -0.50198822
H        0.64249202      -0.12384543       2.32626419
H        0.76041633       1.12093716       1.20178259
H        0.16892821      -1.77212576      -1.19593173
H        0.85638209      -2.67336188       0.02048159
H       -1.73656475      -0.86515951      -0.15895864
H       -1.58758981       0.23560538       1.02346094
H       -0.67334910       0.56929255      -1.85504568
H       -2.00114290       1.37373442      -1.03414035
H        0.60270522       2.09736022      -1.11500387
16
Frame=16 idx=010735 GeodesicLength=1.6982231511220156 rxn_smarts="[N:1]([C:2](=[O:3])[C:4]([C:5]([C:6]([O:7][H:16])([H:14])[H:15])([H:12])[H:13])([H:10])[H:11])([H:8])[H:9]>>[N+:1]([C:2]([O-:3])=[C:4]([H:10])[H:11])([C:5]([C:6]([O:7][H:16])([H:14])[H:15])([H:12])[H:13])([H:8])[H:9]"
N        0.57459557       0.11438570       1.38657987
C        1.37303697      -0.69169110       0.45479614
O        2.52412139      -0.39054621       0.19870468
C        0.52471319      -1.63280540      -0.17892322
C       -1.02112203      -0.12255452       0.18040554
C       -0.96706810       0.96444267      -0.89041461
O       -0.06006997       1.97504224      -0.51602833
H        0.64518607      -0.20420646       2.34047506
H        0.66418585       1.11339274       1.27427519
H        0.11593041      -1.80348686      -1.16557315
H        0.91969393      -2.62659405       0.01984471
H       -1.76419350      -0.85541502      -0.14623785
H       -1.61417408       0.26213902       1.01713476
H       -0.67381765       0.53701366      -1.85483908
H       -1.95700932       1.40804698      -1.03115545
H        0.71599130       1.95283661      -1.08904426
