8
Frame=0 idx=004007 GeodesicLength=0.0 rxn_smarts="[O:1]([c:2]1[n:3][n:4]([H:8])[n:5][n:6]1)[H:7]>>[O:1]=[c:2]1[n:3]([H:7])[n:4]([H:8])[n:5][n:6]1"
O        2.05062161      -0.21457521      -0.16876166
C        0.81512241      -0.44609664      -0.01606942
N        0.16056925       0.69773566       0.19773007
N       -1.12500641       0.36327840       0.03689340
N       -1.24567846      -0.93326815      -0.08796653
N       -0.06921325      -1.47768402      -0.13873705
H        1.32546719       1.05777230      -0.07422101
H       -1.91188231       0.95283769       0.25113219
8
Frame=1 idx=004007 GeodesicLength=0.03643767618430372 rxn_smarts="[O:1]([c:2]1[n:3][n:4]([H:8])[n:5][n:6]1)[H:7]>>[O:1]=[c:2]1[n:3]([H:7])[n:4]([H:8])[n:5][n:6]1"
O        2.04637942      -0.21487841      -0.17557232
C        0.81576557      -0.44996156       0.01050607
N        0.15933665       0.69889510       0.20359233
N       -1.12492538       0.36374630       0.02850626
N       -1.24615813      -0.93473580      -0.08521114
N       -0.07042498      -1.47591188      -0.15155732
H        1.33142337       1.06255288      -0.08314524
H       -1.91139652       0.95029338       0.25288135
8
Frame=2 idx=004007 GeodesicLength=0.07287637087091431 rxn_smarts="[O:1]([c:2]1[n:3][n:4]([H:8])[n:5][n:6]1)[H:7]>>[O:1]=[c:2]1[n:3]([H:7])[n:4]([H:8])[n:5][n:6]1"
O        2.04207953      -0.21552746      -0.18036641
C        0.81596473      -0.45324900       0.03292633
N        0.15814341       0.70007380       0.20882048
N       -1.12487770       0.36417065       0.02106600
N       -1.24655664      -0.93584541      -0.08555761
N       -0.07145667      -1.47420699      -0.16068972
H        1.33762877       1.06727509      -0.09233241
H       -1.91092543       0.94730932       0.25613334
8
Frame=3 idx=004007 GeodesicLength=0.10937688517988448 rxn_smarts="[O:1]([c:2]1[n:3][n:4]([H:8])[n:5][n:6]1)[H:7]>>[O:1]=[c:2]1[n:3]([H:7])[n:4]([H:8])[n:5][n:6]1"
O        2.03772890      -0.21629918      -0.18416078
C        0.81589809      -0.45618684       0.05268290
N        0.15699153       0.70120035       0.21397048
N       -1.12482686       0.36458120       0.01428574
N       -1.24693832      -0.93674524      -0.08767479
N       -0.07239320      -1.47263513      -0.16752580
H        1.34399932       1.07197655      -0.10155567
H       -1.91045947       0.94410828       0.25997792
8
Frame=4 idx=004007 GeodesicLength=0.14588996689247904 rxn_smarts="[O:1]([c:2]1[n:3][n:4]([H:8])[n:5][n:6]1)[H:7]>>[O:1]=[c:2]1[n:3]([H:7])[n:4]([H:8])[n:5][n:6]1"
O        2.03340579      -0.21712600      -0.18678186
C        0.81565710      -0.45892894       0.07068309
N        0.15582144       0.70228264       0.21911068
N       -1.12473372       0.36498636       0.00813410
N       -1.24728262      -0.93754930      -0.09040445
N       -0.07325766      -1.47110075      -0.17360227
H        1.35036577       1.07659570      -0.11118921
H       -1.90997610       0.94084028       0.26404992
8
Frame=5 idx=004007 GeodesicLength=0.1823654439046954 rxn_smarts="[O:1]([c:2]1[n:3][n:4]([H:8])[n:5][n:6]1)[H:7]>>[O:1]=[c:2]1[n:3]([H:7])[n:4]([H:8])[n:5][n:6]1"
O        2.02904161      -0.21799213      -0.18887294
C        0.81518833      -0.46148477       0.08711286
N        0.15467357       0.70332870       0.22423800
N       -1.12463896       0.36539641       0.00238056
N       -1.24760926      -0.93823932      -0.09409075
N       -0.07405370      -1.46962147      -0.17835846
H        1.35688507       1.08119236      -0.12079792
H       -1.90948666       0.93742022       0.26838863
8
Frame=6 idx=004007 GeodesicLength=0.21885039738586598 rxn_smarts="[O:1]([c:2]1[n:3][n:4]([H:8])[n:5][n:6]1)[H:7]>>[O:1]=[c:2]1[n:3]([H:7])[n:4]([H:8])[n:5][n:6]1"
O        2.02469736      -0.21885026      -0.19025016
C        0.81462327      -0.46394106       0.10257309
N        0.15351629       0.70436126       0.22939682
N       -1.12453183       0.36579102      -0.00294935
N       -1.24793679      -0.93890898      -0.09784555
N       -0.07481024      -1.46813375      -0.18296119
H        1.36345031       1.08570584      -0.13066177
H       -1.90900837       0.93397595       0.27269811
8
Frame=7 idx=004007 GeodesicLength=0.255344635007913 rxn_smarts="[O:1]([c:2]1[n:3][n:4]([H:8])[n:5][n:6]1)[H:7]>>[O:1]=[c:2]1[n:3]([H:7])[n:4]([H:8])[n:5][n:6]1"
O        2.02035141      -0.21966659      -0.19129122
C        0.81394094      -0.46630987       0.11705264
N        0.15234622       0.70533417       0.23465804
N       -1.12440677       0.36617765      -0.00795527
N       -1.24824941      -0.93953701      -0.10183896
N       -0.07556348      -1.46668566      -0.18704720
H        1.37011991       1.09019191      -0.14050715
H       -1.90853883       0.93049540       0.27692912
8
Frame=8 idx=004007 GeodesicLength=0.2918473707871949 rxn_smarts="[O:1]([c:2]1[n:3][n:4]([H:8])[n:5][n:6]1)[H:7]>>[O:1]=[c:2]1[n:3]([H:7])[n:4]([H:8])[n:5][n:6]1"
O        2.01601853      -0.22044236      -0.19189442
C        0.81316818      -0.46862159       0.13082845
N        0.15116151       0.70627426       0.23998769
N       -1.12427300       0.36656683      -0.01265504
N       -1.24855697      -0.94013503      -0.10595129
N       -0.07629473      -1.46524567      -0.19092533
H        1.37686515       1.09461865      -0.15051271
H       -1.90808869       0.92698491       0.28112266
8
Frame=9 idx=004007 GeodesicLength=0.32836672037414627 rxn_smarts="[O:1]([c:2]1[n:3][n:4]([H:8])[n:5][n:6]1)[H:7]>>[O:1]=[c:2]1[n:3]([H:7])[n:4]([H:8])[n:5][n:6]1"
O        2.01169159      -0.22117083      -0.19208234
C        0.81231127      -0.47090091       0.14405629
N        0.14995915       0.70719475       0.24539439
N       -1.12412609       0.36696217      -0.01707291
N       -1.24885375      -0.94070385      -0.11016467
N       -0.07700175      -1.46379008      -0.19468616
H        1.38367443       1.09897042      -0.16073223
H       -1.90765486       0.92343833       0.28528764
8
Frame=10 idx=004007 GeodesicLength=0.3648956167047901 rxn_smarts="[O:1]([c:2]1[n:3][n:4]([H:8])[n:5][n:6]1)[H:7]>>[O:1]=[c:2]1[n:3]([H:7])[n:4]([H:8])[n:5][n:6]1"
O        2.00735447      -0.22183813      -0.19198909
C        0.81137778      -0.47315495       0.15677591
N        0.14873682       0.70808282       0.25089752
N       -1.12396660       0.36736219      -0.02125286
N       -1.24913980      -0.94124570      -0.11446508
N       -0.07769364      -1.46233477      -0.19828231
H        1.39057102       1.10326515      -0.17106916
H       -1.90724004       0.91986339       0.28938506
8
Frame=11 idx=004007 GeodesicLength=0.40141972878057264 rxn_smarts="[O:1]([c:2]1[n:3][n:4]([H:8])[n:5][n:6]1)[H:7]>>[O:1]=[c:2]1[n:3]([H:7])[n:4]([H:8])[n:5][n:6]1"
O        2.00298410      -0.22242359      -0.19176669
C        0.81038177      -0.47540604       0.16901211
N        0.14748996       0.70891910       0.25653578
N       -1.12378734       0.36775720      -0.02523265
N       -1.24941969      -0.94178221      -0.11872879
N       -0.07837566      -1.46088475      -0.20173489
H        1.39757086       1.10752695      -0.18139048
H       -1.90684401       0.91629333       0.29330560
8
Frame=12 idx=004007 GeodesicLength=0.4379531987988233 rxn_smarts="[O:1]([c:2]1[n:3][n:4]([H:8])[n:5][n:6]1)[H:7]>>[O:1]=[c:2]1[n:3]([H:7])[n:4]([H:8])[n:5][n:6]1"
O        1.99859114      -0.22292885      -0.19135587
C        0.80932731      -0.47765892       0.18086615
N        0.14621562       0.70971252       0.26230257
N       -1.12359004       0.36815329      -0.02901766
N       -1.24969076      -0.94230489      -0.12298984
N       -0.07904708      -1.45942937      -0.20510997
H        1.40466182       1.11173985      -0.19180165
H       -1.90646802       0.91271638       0.29710626
8
Frame=13 idx=004007 GeodesicLength=0.4744935824453844 rxn_smarts="[O:1]([c:2]1[n:3][n:4]([H:8])[n:5][n:6]1)[H:7]>>[O:1]=[c:2]1[n:3]([H:7])[n:4]([H:8])[n:5][n:6]1"
O        1.99418876      -0.22335645      -0.19068682
C        0.80820863      -0.47991819       0.19241076
N        0.14491313       0.71047593       0.26817211
N       -1.12338032       0.36856111      -0.03261412
N       -1.24995121      -0.94280387      -0.12729688
N       -0.07970154      -1.45795353      -0.20844785
H        1.41183693       1.11588305      -0.20239689
H       -1.90611436       0.90911194       0.30085968
8
Frame=14 idx=004007 GeodesicLength=0.5111277533567454 rxn_smarts="[O:1]([c:2]1[n:3][n:4]([H:8])[n:5][n:6]1)[H:7]>>[O:1]=[c:2]1[n:3]([H:7])[n:4]([H:8])[n:5][n:6]1"
O        1.98977773      -0.22368336      -0.18973910
C        0.80702380      -0.48221536       0.20370826
N        0.14358641       0.71123075       0.27415530
N       -1.12315824       0.36900132      -0.03603352
N       -1.25020527      -0.94330408      -0.13167365
N       -0.08034448      -1.45647257      -0.21178048
H        1.41909890       1.11995772      -0.21323200
H       -1.90577883       0.90548559       0.30459519
8
Frame=15 idx=004007 GeodesicLength=0.5476306006055333 rxn_smarts="[O:1]([c:2]1[n:3][n:4]([H:8])[n:5][n:6]1)[H:7]>>[O:1]=[c:2]1[n:3]([H:7])[n:4]([H:8])[n:5][n:6]1"
O        1.98535581      -0.22396165      -0.18845077
C        0.80577988      -0.48446664       0.21476540
N        0.14222195       0.71193044       0.28024054
N       -1.12293215       0.36942609      -0.03924639
N       -1.25042071      -0.94369127      -0.13620667
N       -0.08095155      -1.45491166      -0.21507900
H        1.42642287       1.12389636      -0.22438647
H       -1.90547609       0.90177833       0.30836336
8
Frame=16 idx=004007 GeodesicLength=0.5841813344482948 rxn_smarts="[O:1]([c:2]1[n:3][n:4]([H:8])[n:5][n:6]1)[H:7]>>[O:1]=[c:2]1[n:3]([H:7])[n:4]([H:8])[n:5][n:6]1"
O        1.98092709      -0.22413322      -0.18691897
C        0.80447003      -0.48676195       0.22562179
N        0.14082187       0.71261545       0.28643171
N       -1.12269655       0.36988530      -0.04230489
N       -1.25062398      -0.94407272      -0.14078926
N       -0.08153828      -1.45332929      -0.21838922
H        1.43383829       1.12774947      -0.23576436
H       -1.90519848       0.89804696       0.31211320
