12
Frame=0 idx=006779 GeodesicLength=0.0 rxn_smarts="[O:1]=[C:2]([C@@:3]1([H:9])[C:4]([H:10])([H:11])[N:5]1[C:6](=[O:7])[H:12])[H:8]>>[C-:3]1([H:9])[C:4]([H:10])([H:11])[N+:5]1([C:6](=[O:7])[H:12])[H:8].[O+:1]#[C-:2]"
O        3.09370609       0.05836664      -0.40940082
C        1.95622540      -0.11330231      -0.62069134
C        0.68837489       0.39778256       0.53119752
C       -0.31763638       1.12661223      -0.24583480
N       -0.34009990      -0.33719508      -0.26559461
C       -1.38448015      -1.09539721       0.32473316
O       -2.39155172      -0.62032695       0.74473105
H        0.45176205      -0.70484979      -1.02601313
H        0.58512977       0.33002653       1.61046662
H       -0.01118382       1.54061147      -1.20471283
H       -1.17744471       1.58822085       0.22330073
H       -1.15280151      -2.17054894       0.33781844
12
Frame=1 idx=006779 GeodesicLength=0.07037021089827832 rxn_smarts="[O:1]=[C:2]([C@@:3]1([H:9])[C:4]([H:10])([H:11])[N:5]1[C:6](=[O:7])[H:12])[H:8]>>[C-:3]1([H:9])[C:4]([H:10])([H:11])[N+:5]1([C:6](=[O:7])[H:12])[H:8].[O+:1]#[C-:2]"
O        3.10003342       0.03556742      -0.42102284
C        1.95975074      -0.11847900      -0.62658826
C        0.69228418       0.41168807       0.53544051
C       -0.32320250       1.13223863      -0.23978840
N       -0.34211114      -0.32997687      -0.25031954
C       -1.38646551      -1.09906096       0.31659547
O       -2.40404205      -0.63134459       0.72003661
H        0.46291056      -0.70966186      -1.01748875
H        0.58911593       0.34338313       1.61473777
H       -0.02909154       1.53805702      -1.20592742
H       -1.17681827       1.59898857       0.23565656
H       -1.14236382      -2.17139957       0.33866830
12
Frame=2 idx=006779 GeodesicLength=0.14074671077937226 rxn_smarts="[O:1]=[C:2]([C@@:3]1([H:9])[C:4]([H:10])([H:11])[N:5]1[C:6](=[O:7])[H:12])[H:8]>>[C-:3]1([H:9])[C:4]([H:10])([H:11])[N+:5]1([C:6](=[O:7])[H:12])[H:8].[O+:1]#[C-:2]"
O        3.10605002       0.01237953      -0.43259415
C        1.96324867      -0.12373497      -0.63253891
C        0.69629606       0.42575504       0.53957458
C       -0.32886246       1.13788298      -0.23353939
N       -0.34419913      -0.32269459      -0.23453855
C       -1.38828662      -1.10274368       0.30821805
O       -2.41626413      -0.64253117       0.69444286
H        0.47402645      -0.71444565      -1.00905402
H        0.59351056       0.35711874       1.61895253
H       -0.04741615       1.53528048      -1.20685159
H       -1.17618017       1.60980235       0.24816922
H       -1.13192309      -2.17206907       0.33975936
12
Frame=3 idx=006779 GeodesicLength=0.21110335959565435 rxn_smarts="[O:1]=[C:2]([C@@:3]1([H:9])[C:4]([H:10])([H:11])[N:5]1[C:6](=[O:7])[H:12])[H:8]>>[C-:3]1([H:9])[C:4]([H:10])([H:11])[N+:5]1([C:6](=[O:7])[H:12])[H:8].[O+:1]#[C-:2]"
O        3.11172667      -0.01117542      -0.44411622
C        1.96670629      -0.12908843      -0.63852850
C        0.70040150       0.43997839       0.54359580
C       -0.33461542       1.14353592      -0.22708564
N       -0.34637186      -0.31534776      -0.21821652
C       -1.38992927      -1.10643980       0.29957828
O       -2.42815414      -0.65388661       0.66795578
H        0.48510277      -0.71919935      -1.00071586
H        0.59831825       0.37125057       1.62310851
H       -0.06615404       1.53225948      -1.20747154
H       -1.17552502       1.62066221       0.26082570
H       -1.12150573      -2.17254920       0.34107021
12
Frame=4 idx=006779 GeodesicLength=0.2814640455845824 rxn_smarts="[O:1]=[C:2]([C@@:3]1([H:9])[C:4]([H:10])([H:11])[N:5]1[C:6](=[O:7])[H:12])[H:8]>>[C-:3]1([H:9])[C:4]([H:10])([H:11])[N+:5]1([C:6](=[O:7])[H:12])[H:8].[O+:1]#[C-:2]"
O        3.11704682      -0.03520790      -0.45559425
C        1.97010967      -0.13451571      -0.64459042
C        0.70461709       0.45438528       0.54749502
C       -0.34047640       1.14920597      -0.22039339
N       -0.34863290      -0.30792699      -0.20128852
C       -1.39134977      -1.11015335       0.29070856
O       -2.43973885      -0.66544550       0.64034817
H        0.49612019      -0.72391396      -0.99247957
H        0.60360872       0.38585155       1.62720129
H       -0.08537175       1.52898231      -1.20775477
H       -1.17485066       1.63157972       0.27368565
H       -1.11108217      -2.17284141       0.34266222
12
Frame=5 idx=006779 GeodesicLength=0.35182248089741175 rxn_smarts="[O:1]=[C:2]([C@@:3]1([H:9])[C:4]([H:10])([H:11])[N:5]1[C:6](=[O:7])[H:12])[H:8]>>[C-:3]1([H:9])[C:4]([H:10])([H:11])[N+:5]1([C:6](=[O:7])[H:12])[H:8].[O+:1]#[C-:2]"
O        3.12199434      -0.05957574      -0.46704424
C        1.97346050      -0.14008717      -0.65067417
C        0.70892475       0.46895029       0.55127627
C       -0.34643766       1.15487385      -0.21347741
N       -0.35100025      -0.30044349      -0.18372478
C       -1.39255479      -1.11387558       0.28156342
O       -2.45091504      -0.67717692       0.61175984
H        0.50707474      -0.72861277      -0.98435446
H        0.60936133       0.40092205       1.63123762
H       -0.10502274       1.52540924      -1.20769552
H       -1.17415364       1.64256764       0.28669516
H       -1.10073154      -2.17295141       0.34443826
12
Frame=6 idx=006779 GeodesicLength=0.4221593204875226 rxn_smarts="[O:1]=[C:2]([C@@:3]1([H:9])[C:4]([H:10])([H:11])[N:5]1[C:6](=[O:7])[H:12])[H:8]>>[C-:3]1([H:9])[C:4]([H:10])([H:11])[N+:5]1([C:6](=[O:7])[H:12])[H:8].[O+:1]#[C-:2]"
O        3.12656249      -0.08410564      -0.47848425
C        1.97676094      -0.14588061      -0.65672262
C        0.71330321       0.48364369       0.55494208
C       -0.35248615       1.16051534      -0.20635638
N       -0.35350093      -0.29291566      -0.16549568
C       -1.39355394      -1.11759857       0.27209322
O       -2.46157473      -0.68904143       0.58236419
H        0.51795568      -0.73332144      -0.97634619
H        0.61554327       0.41646306       1.63522163
H       -0.12504456       1.52149052      -1.20729034
H       -1.17342093       1.65364343       0.29979496
H       -1.09054436      -2.17289269       0.34627939
12
Frame=7 idx=006779 GeodesicLength=0.492445299707065 rxn_smarts="[O:1]=[C:2]([C@@:3]1([H:9])[C:4]([H:10])([H:11])[N:5]1[C:6](=[O:7])[H:12])[H:8]>>[C-:3]1([H:9])[C:4]([H:10])([H:11])[N+:5]1([C:6](=[O:7])[H:12])[H:8].[O+:1]#[C-:2]"
O        3.13073860      -0.10863924      -0.48989788
C        1.97999560      -0.15198129      -0.66265681
C        0.71771806       0.49843258       0.55849349
C       -0.35861053       1.16611024      -0.19906510
N       -0.35616131      -0.28534323      -0.14658032
C       -1.39434988      -1.12131076       0.26224433
O       -2.47160855      -0.70101349       0.55244590
H        0.52875329      -0.73806824      -0.96846891
H        0.62211444       0.43247447       1.63914130
H       -0.14536144       1.51719418      -1.20655003
H       -1.17263789       1.66482463       0.31289427
H       -1.08059041      -2.17267987       0.34799977
12
Frame=8 idx=006779 GeodesicLength=0.5627239910999431 rxn_smarts="[O:1]=[C:2]([C@@:3]1([H:9])[C:4]([H:10])([H:11])[N:5]1[C:6](=[O:7])[H:12])[H:8]>>[C-:3]1([H:9])[C:4]([H:10])([H:11])[N+:5]1([C:6](=[O:7])[H:12])[H:8].[O+:1]#[C-:2]"
O        3.13452306      -0.13331376      -0.50130298
C        1.98315157      -0.15836271      -0.66853390
C        0.72218481       0.51333313       0.56191971
C       -0.36483568       1.17166351      -0.19155512
N       -0.35899705      -0.27772344      -0.12689749
C       -1.39487697      -1.12500783       0.25206992
O       -2.48105270      -0.71311763       0.52166459
H        0.53943315      -0.74282431      -0.96074456
H        0.62915151       0.44902758       1.64300358
H       -0.16605990       1.51250448      -1.20542959
H       -1.17181100       1.67613109       0.32607601
H       -1.07081080      -2.17231012       0.34972983
12
Frame=9 idx=006779 GeodesicLength=0.6329883001186212 rxn_smarts="[O:1]=[C:2]([C@@:3]1([H:9])[C:4]([H:10])([H:11])[N:5]1[C:6](=[O:7])[H:12])[H:8]>>[C-:3]1([H:9])[C:4]([H:10])([H:11])[N+:5]1([C:6](=[O:7])[H:12])[H:8].[O+:1]#[C-:2]"
O        3.13786558      -0.15832760      -0.51266022
C        1.98618654      -0.16497649      -0.67439091
C        0.72670655       0.52837877       0.56519821
C       -0.37118605       1.17718404      -0.18379141
N       -0.36201568      -0.27003323      -0.10636618
C       -1.39504969      -1.12868152       0.24163894
O       -2.48989081      -0.72539976       0.48977678
H        0.54995915      -0.74756004      -0.95319353
H        0.63672984       0.46622093       1.64678073
H       -0.18723108       1.50741527      -1.20388450
H       -1.17093469       1.68757002       0.33939266
H       -1.06113966      -2.17179040       0.35149942
12
Frame=10 idx=006779 GeodesicLength=0.7032230997742135 rxn_smarts="[O:1]=[C:2]([C@@:3]1([H:9])[C:4]([H:10])([H:11])[N:5]1[C:6](=[O:7])[H:12])[H:8]>>[C-:3]1([H:9])[C:4]([H:10])([H:11])[N+:5]1([C:6](=[O:7])[H:12])[H:8].[O+:1]#[C-:2]"
O        3.14077909      -0.18350923      -0.52394279
C        1.98910270      -0.17192626      -0.68015077
C        0.73124517       0.54352341       0.56832927
C       -0.37765984       1.18263750      -0.17580977
N       -0.36526149      -0.26228444      -0.08495453
C       -1.39486408      -1.13231003       0.23090732
O       -2.49798488      -0.73781434       0.45709071
H        0.56030505      -0.75227162      -0.94585073
H        0.64479651       0.48405691       1.65047048
H       -0.20880419       1.50185451      -1.20193005
H       -1.17000242       1.69917712       0.35275256
H       -1.05165162      -2.17113354       0.35308831
12
Frame=11 idx=006779 GeodesicLength=0.7734718292944245 rxn_smarts="[O:1]=[C:2]([C@@:3]1([H:9])[C:4]([H:10])([H:11])[N:5]1[C:6](=[O:7])[H:12])[H:8]>>[C-:3]1([H:9])[C:4]([H:10])([H:11])[N+:5]1([C:6](=[O:7])[H:12])[H:8].[O+:1]#[C-:2]"
O        3.14321251      -0.20909297      -0.53512263
C        1.99186035      -0.17916937      -0.68585733
C        0.73580187       0.55880532       0.57129390
C       -0.38428990       1.18804263      -0.16756787
N       -0.36874895      -0.25445081      -0.06255831
C       -1.39421381      -1.13587747       0.22002841
O       -2.50531870      -0.75041378       0.42329092
H        0.57042932      -0.75693145      -0.93874259
H        0.65343398       0.50265935       1.65405564
H       -0.23088798       1.49581766      -1.19952319
H       -1.16901663       1.71098558       0.36621619
H       -1.04226209      -2.17037469       0.35448685
12
Frame=12 idx=006779 GeodesicLength=0.8437573498888534 rxn_smarts="[O:1]=[C:2]([C@@:3]1([H:9])[C:4]([H:10])([H:11])[N:5]1[C:6](=[O:7])[H:12])[H:8]>>[C-:3]1([H:9])[C:4]([H:10])([H:11])[N+:5]1([C:6](=[O:7])[H:12])[H:8].[O+:1]#[C-:2]"
O        3.14511169      -0.23525942      -0.54615242
C        1.99442673      -0.18669393      -0.69154754
C        0.74037031       0.57423165       0.57406997
C       -0.39111127       1.19339958      -0.15902619
N       -0.37250771      -0.24650668      -0.03909493
C       -1.39301606      -1.13935845       0.20908398
O       -2.51181987      -0.76324151       0.38811006
H        0.58027209      -0.76147650      -0.93193325
H        0.66270818       0.52210480       1.65751067
H       -0.25356672       1.48928167      -1.19661052
H       -1.16798470       1.72301610       0.37983459
H       -1.03288267      -2.16949729       0.35575558
12
Frame=13 idx=006779 GeodesicLength=0.9140334980901142 rxn_smarts="[O:1]=[C:2]([C@@:3]1([H:9])[C:4]([H:10])([H:11])[N:5]1[C:6](=[O:7])[H:12])[H:8]>>[C-:3]1([H:9])[C:4]([H:10])([H:11])[N+:5]1([C:6](=[O:7])[H:12])[H:8].[O+:1]#[C-:2]"
O        3.14644770      -0.26188230      -0.55699605
C        1.99677749      -0.19457478      -0.69714386
C        0.74488490       0.58973282       0.57664369
C       -0.39811648       1.19868894      -0.15021714
N       -0.37659327      -0.23845648      -0.01457049
C       -1.39124567      -1.14272390       0.19807572
O       -2.51734615      -0.77625317       0.35180018
H        0.58980935      -0.76591601      -0.92547871
H        0.67253370       0.54235793       1.66079798
H       -0.27676264       1.48223861      -1.19317679
H       -1.16687515       1.73530964       0.39351658
H       -1.02351378      -2.16852130       0.35674889
12
Frame=14 idx=006779 GeodesicLength=0.9843798729345087 rxn_smarts="[O:1]=[C:2]([C@@:3]1([H:9])[C:4]([H:10])([H:11])[N:5]1[C:6](=[O:7])[H:12])[H:8]>>[C-:3]1([H:9])[C:4]([H:10])([H:11])[N+:5]1([C:6](=[O:7])[H:12])[H:8].[O+:1]#[C-:2]"
O        3.14714773      -0.28931246      -0.56753104
C        1.99888252      -0.20276462      -0.70271284
C        0.74932131       0.60533188       0.57898558
C       -0.40536862       1.20393035      -0.14110208
N       -0.38104613      -0.23025097       0.01107949
C       -1.38878627      -1.14594223       0.18716104
O       -2.52178046      -0.78952425       0.31411443
H        0.59897642      -0.77014764      -0.91950578
H        0.68295815       0.56352107       1.66388810
H       -0.30058398       1.47469787      -1.18917381
H       -1.16572792       1.74790261       0.40732091
H       -1.01399275      -2.16744161       0.35747600
12
Frame=15 idx=006779 GeodesicLength=1.0547462378159118 rxn_smarts="[O:1]=[C:2]([C@@:3]1([H:9])[C:4]([H:10])([H:11])[N:5]1[C:6](=[O:7])[H:12])[H:8]>>[C-:3]1([H:9])[C:4]([H:10])([H:11])[N+:5]1([C:6](=[O:7])[H:12])[H:8].[O+:1]#[C-:2]"
O        3.14718543      -0.31737015      -0.57774526
C        2.00071719      -0.21135175      -0.70816643
C        0.75360318       0.62092310       0.58108793
C       -0.41285382       1.20910569      -0.13171223
N       -0.38593589      -0.22189418       0.03781539
C       -1.38561793      -1.14897254       0.17638994
O       -2.52498708      -0.80299752       0.27525276
H        0.60774768      -0.77419387      -0.91408644
H        0.69387482       0.58549883       1.66673657
H       -0.32494611       1.46666826      -1.18457972
H       -1.16449251       1.76084883       0.42115529
H       -1.00429496      -2.16626470       0.35785221
12
Frame=16 idx=006779 GeodesicLength=1.1251350663362751 rxn_smarts="[O:1]=[C:2]([C@@:3]1([H:9])[C:4]([H:10])([H:11])[N:5]1[C:6](=[O:7])[H:12])[H:8]>>[C-:3]1([H:9])[C:4]([H:10])([H:11])[N+:5]1([C:6](=[O:7])[H:12])[H:8].[O+:1]#[C-:2]"
O        3.14645195      -0.34634298      -0.58745207
C        2.00224469      -0.22029788      -0.71353291
C        0.75766893       0.63649102       0.58291217
C       -0.42061451       1.21423015      -0.12204121
N       -0.39131654      -0.21334021       0.06563401
C       -1.38164765      -1.15178072       0.16590637
O       -2.52678222      -0.81673109       0.23523264
H        0.61605691      -0.77793304      -0.90939141
H        0.70524264       0.60831997       1.66927581
H       -0.34988270       1.45818570      -1.17935496
H       -1.16317993       1.77418327       0.43501015
H       -0.99424156      -2.16498420       0.35780140
