9
Frame=0 idx=002875 GeodesicLength=0.0 rxn_smarts="[C:1]([C:2](=[O:3])[C:4]#[C:5][H:9])([H:6])([H:7])[H:8]>>[C:1]([C-:2]=[O+:3][C:4]#[C:5][H:9])([H:6])([H:7])[H:8]"
C       -1.45413773       0.37023849      -0.06121618
C       -0.25814064      -0.00146253       0.73357492
O        0.16503989      -1.27612275       0.45615143
C        1.24541213      -0.44005767       0.26462090
C        2.33742472      -0.16785975      -0.19810709
H       -1.42311977      -0.05037076      -1.07200042
H       -1.59493948       1.44847773      -0.08530580
H       -2.31004741      -0.07635686       0.45865866
H        3.29250827       0.19351408      -0.49637639
9
Frame=1 idx=002875 GeodesicLength=0.06045492731477177 rxn_smarts="[C:1]([C:2](=[O:3])[C:4]#[C:5][H:9])([H:6])([H:7])[H:8]>>[C:1]([C-:2]=[O+:3][C:4]#[C:5][H:9])([H:6])([H:7])[H:8]"
C       -1.46247857       0.36799041      -0.06117451
C       -0.25689285       0.01082509       0.72580205
O        0.15788303      -1.26576597       0.48174326
C        1.25379411      -0.43101182       0.25596763
C        2.34622556      -0.17008573      -0.20893040
H       -1.42312363      -0.03091609      -1.08022473
H       -1.61618659       1.44502250      -0.07108934
H       -2.31150311      -0.09967357       0.45058117
H        3.31228204       0.17361519      -0.49267513
9
Frame=2 idx=002875 GeodesicLength=0.12089977007485919 rxn_smarts="[C:1]([C:2](=[O:3])[C:4]#[C:5][H:9])([H:6])([H:7])[H:8]>>[C:1]([C-:2]=[O+:3][C:4]#[C:5][H:9])([H:6])([H:7])[H:8]"
C       -1.47076189       0.36559237      -0.06123761
C       -0.25572759       0.02285373       0.71766956
O        0.15092300      -1.25484328       0.50740440
C        1.26217082      -0.42207214       0.24678201
C        2.35535728      -0.17211796      -0.21906732
H       -1.42393500      -0.01128475      -1.08813112
H       -1.63720185       1.44110805      -0.05681921
H       -2.31251017      -0.12275111       0.44233061
H        3.33168540       0.15351509      -0.48893131
9
Frame=3 idx=002875 GeodesicLength=0.18135151900969027 rxn_smarts="[C:1]([C:2](=[O:3])[C:4]#[C:5][H:9])([H:6])([H:7])[H:8]>>[C:1]([C-:2]=[O+:3][C:4]#[C:5][H:9])([H:6])([H:7])[H:8]"
C       -1.47889436       0.36307120      -0.06144486
C       -0.25466035       0.03455544       0.70924707
O        0.14404273      -1.24341561       0.53328257
C        1.27053228      -0.41343748       0.23728125
C        2.36488213      -0.17423052      -0.22819944
H       -1.42536258       0.00860762      -1.09577301
H       -1.65783003       1.43675821      -0.04246978
H       -2.31307818      -0.14556328       0.43372492
H        3.35036836       0.13365442      -0.48564871
9
Frame=4 idx=002875 GeodesicLength=0.2417576419975585 rxn_smarts="[C:1]([C:2](=[O:3])[C:4]#[C:5][H:9])([H:6])([H:7])[H:8]>>[C:1]([C-:2]=[O+:3][C:4]#[C:5][H:9])([H:6])([H:7])[H:8]"
C       -1.48688386       0.36043033      -0.06177473
C       -0.25365251       0.04590109       0.70049402
O        0.13724243      -1.23150927       0.55935733
C        1.27885528      -0.40520014       0.22727885
C        2.37470575      -0.17645716      -0.23665076
H       -1.42754456       0.02863616      -1.10309470
H       -1.67797727       1.43200425      -0.02814020
H       -2.31321610      -0.16799039       0.42492624
H        3.36847084       0.11418514      -0.48239605
9
Frame=5 idx=002875 GeodesicLength=0.3021350718712875 rxn_smarts="[C:1]([C:2](=[O:3])[C:4]#[C:5][H:9])([H:6])([H:7])[H:8]>>[C:1]([C-:2]=[O+:3][C:4]#[C:5][H:9])([H:6])([H:7])[H:8]"
C       -1.49469537       0.35770379      -0.06224533
C       -0.25265714       0.05685534       0.69139960
O        0.13044068      -1.21917659       0.58573336
C        1.28713886      -0.39760970       0.21675947
C        2.38487895      -0.17914162      -0.24437504
H       -1.43048822       0.04876812      -1.11011929
H       -1.69752508       1.42691663      -0.01386549
H       -2.31295008      -0.18993457       0.41593890
H        3.38585739       0.09561860      -0.47922616
9
Frame=6 idx=002875 GeodesicLength=0.36252021500096243 rxn_smarts="[C:1]([C:2](=[O:3])[C:4]#[C:5][H:9])([H:6])([H:7])[H:8]>>[C:1]([C-:2]=[O+:3][C:4]#[C:5][H:9])([H:6])([H:7])[H:8]"
C       -1.50222394       0.35491396      -0.06288501
C       -0.25169455       0.06734070       0.68201740
O        0.12345949      -1.20642096       0.61254969
C        1.29534873      -0.39090651       0.20593952
C        2.39537953      -0.18263294      -0.25120394
H       -1.43397102       0.06905132      -1.11686494
H       -1.71628193       1.42150576       0.00035171
H       -2.31228982      -0.21135246       0.40662640
H        3.40227352       0.07850113      -0.47653084
9
Frame=7 idx=002875 GeodesicLength=0.42286401700269044 rxn_smarts="[C:1]([C:2](=[O:3])[C:4]#[C:5][H:9])([H:6])([H:7])[H:8]>>[C:1]([C-:2]=[O+:3][C:4]#[C:5][H:9])([H:6])([H:7])[H:8]"
C       -1.50976812       0.35200324      -0.06359218
C       -0.25064215       0.07770672       0.67200965
O        0.11669286      -1.19280864       0.63969083
C        1.30347167      -0.38462405       0.19387363
C        2.40613296      -0.18622551      -0.25796103
H       -1.43856636       0.08945395      -1.12325561
H       -1.73491145       1.41566255       0.01471450
H       -2.31119287      -0.23257873       0.39734103
H        3.41878347       0.06141047      -0.47282081
9
Frame=8 idx=002875 GeodesicLength=0.48320689575132164 rxn_smarts="[C:1]([C:2](=[O:3])[C:4]#[C:5][H:9])([H:6])([H:7])[H:8]>>[C:1]([C-:2]=[O+:3][C:4]#[C:5][H:9])([H:6])([H:7])[H:8]"
C       -1.51711242       0.34902259      -0.06445564
C       -0.24959463       0.08768099       0.66166797
O        0.10985575      -1.17855871       0.66734492
C        1.31153066      -0.37920110       0.18136168
C        2.41711536      -0.19044050      -0.26411061
H       -1.44377936       0.11006159      -1.12939445
H       -1.75295633       1.40949233       0.02913741
H       -2.30972579      -0.25345057       0.38772122
H        3.43466676       0.04539338      -0.46927252
9
Frame=9 idx=002875 GeodesicLength=0.5435749879895918 rxn_smarts="[C:1]([C:2](=[O:3])[C:4]#[C:5][H:9])([H:6])([H:7])[H:8]>>[C:1]([C-:2]=[O+:3][C:4]#[C:5][H:9])([H:6])([H:7])[H:8]"
C       -1.52442564       0.34591822      -0.06541844
C       -0.24848904       0.09754194       0.65070840
O        0.10315706      -1.16324320       0.69549490
C        1.31946290      -0.37430924       0.16776607
C        2.42832202      -0.19477210      -0.27002908
H       -1.44993136       0.13094888      -1.13521813
H       -1.77086916       1.40283347       0.04386845
H       -2.30780530      -0.27430905       0.37788836
H        3.45057853       0.02939108      -0.46506053
9
Frame=10 idx=002875 GeodesicLength=0.6038618707601074 rxn_smarts="[C:1]([C:2](=[O:3])[C:4]#[C:5][H:9])([H:6])([H:7])[H:8]>>[C:1]([C-:2]=[O+:3][C:4]#[C:5][H:9])([H:6])([H:7])[H:8]"
C       -1.53157791       0.34274871      -0.06653781
C       -0.24730395       0.10709826       0.63928406
O        0.09651551      -1.14705276       0.72429966
C        1.32728119      -0.37041090       0.15337770
C        2.43966127      -0.19972863      -0.27560172
H       -1.45685454       0.15211256      -1.14084821
H       -1.78831877       1.39586077       0.05877421
H       -2.30543273      -0.29496999       0.36779057
H        3.46602993       0.01434197      -0.46053845
9
Frame=11 idx=002875 GeodesicLength=0.6641674828060945 rxn_smarts="[C:1]([C:2](=[O:3])[C:4]#[C:5][H:9])([H:6])([H:7])[H:8]>>[C:1]([C-:2]=[O+:3][C:4]#[C:5][H:9])([H:6])([H:7])[H:8]"
C       -1.53856677       0.33949734      -0.06779604
C       -0.24603856       0.11641461       0.62724647
O        0.08989483      -1.12954945       0.75379272
C        1.33497884      -0.36756643       0.13815302
C        2.45115030      -0.20555175      -0.28079899
H       -1.46443771       0.17367066      -1.14604431
H       -1.80542965       1.38830438       0.07400426
H       -2.30257174      -0.31548053       0.35718241
H        3.48102045       0.00026119      -0.45573952
9
Frame=12 idx=002875 GeodesicLength=0.7244569858034047 rxn_smarts="[C:1]([C:2](=[O:3])[C:4]#[C:5][H:9])([H:6])([H:7])[H:8]>>[C:1]([C-:2]=[O+:3][C:4]#[C:5][H:9])([H:6])([H:7])[H:8]"
C       -1.54549959       0.33612331      -0.06920715
C       -0.24474786       0.12561018       0.61471996
O        0.08351837      -1.11063005       0.78396092
C        1.34260815      -0.36531728       0.12223049
C        2.46264840      -0.21143704      -0.28592160
H       -1.47279310       0.19575981      -1.15103004
H       -1.82251889       1.38021307       0.08973719
H       -2.29915903      -0.33628234       0.34600770
H        3.49594355      -0.01403966      -0.45049749
9
Frame=13 idx=002875 GeodesicLength=0.7847358913218744 rxn_smarts="[C:1]([C:2](=[O:3])[C:4]#[C:5][H:9])([H:6])([H:7])[H:8]>>[C:1]([C-:2]=[O+:3][C:4]#[C:5][H:9])([H:6])([H:7])[H:8]"
C       -1.55219554       0.33267139      -0.07084375
C       -0.24343156       0.13454301       0.60183139
O        0.07715099      -1.09023602       0.81507527
C        1.35017901      -0.36413345       0.10612257
C        2.47406948      -0.21823295      -0.29078594
H       -1.48151559       0.21851723      -1.15575208
H       -1.83931169       1.37153870       0.10593237
H       -2.29514401      -0.35723867       0.33390921
H        3.51019889      -0.02742924      -0.44548904
9
Frame=14 idx=002875 GeodesicLength=0.8449731663569416 rxn_smarts="[C:1]([C:2](=[O:3])[C:4]#[C:5][H:9])([H:6])([H:7])[H:8]>>[C:1]([C-:2]=[O+:3][C:4]#[C:5][H:9])([H:6])([H:7])[H:8]"
C       -1.55880029       0.32908949      -0.07274286
C       -0.24211286       0.14349732       0.58861011
O        0.07105983      -1.06786087       0.84730977
C        1.35781513      -0.36352795       0.09003484
C        2.48536993      -0.22547143      -0.29566739
H       -1.49066668       0.24232388      -1.16025941
H       -1.85646190       1.36204165       0.12295472
H       -2.29035517      -0.37892411       0.32044940
H        3.52415200      -0.04116797      -0.44068917
9
Frame=15 idx=002875 GeodesicLength=0.9052666482226144 rxn_smarts="[C:1]([C:2](=[O:3])[C:4]#[C:5][H:9])([H:6])([H:7])[H:8]>>[C:1]([C-:2]=[O+:3][C:4]#[C:5][H:9])([H:6])([H:7])[H:8]"
C       -1.56527428       0.32523450      -0.07486624
C       -0.24095375       0.15264430       0.57502102
O        0.06527000      -1.04284165       0.88051707
C        1.36538497      -0.36283911       0.07390567
C        2.49631766      -0.23243443      -0.30085888
H       -1.50002964       0.26740930      -1.16433353
H       -1.87423978       1.35114354       0.14103315
H       -2.28446078      -0.40169142       0.30542405
H        3.53798559      -0.05662503      -0.43584231
9
Frame=16 idx=002875 GeodesicLength=0.965514482572957 rxn_smarts="[C:1]([C:2](=[O:3])[C:4]#[C:5][H:9])([H:6])([H:7])[H:8]>>[C:1]([C-:2]=[O+:3][C:4]#[C:5][H:9])([H:6])([H:7])[H:8]"
C       -1.57154681       0.32126449      -0.07733152
C       -0.23984952       0.16173058       0.56132460
O        0.05953245      -1.01554107       0.91491574
C        1.37306203      -0.36287272       0.05845262
C        2.50708011      -0.24040148      -0.30592531
H       -1.50961847       0.29373368      -1.16806924
H       -1.89227539       1.33921199       0.15993489
H       -2.27754290      -0.42520819       0.28857177
H        3.55115848      -0.07191728      -0.43187355
