16
Frame=0 idx=011698 GeodesicLength=0.0 rxn_smarts="[C:1]1([H:8])([H:9])[C@@:2]2([H:10])[N:3]1[C:4]([H:11])([H:12])[C:5]21[C:6]([H:13])([H:14])[C:7]1([H:15])[H:16]>>[C:1](=[N:3][C:4]([C:5]1([C:2][H:10])[C:6]([H:13])([H:14])[C:7]1([H:15])[H:16])([H:11])[H:12])([H:8])[H:9]"
C        2.10027976       1.01223937      -0.32084236
C       -0.01678100       1.30786279      -0.22690132
N        1.77030367      -0.19138176      -0.66494635
C        0.94107127      -0.81314512       0.35179660
C       -0.36420276      -0.06572223       0.06276604
C       -1.70589932      -0.22820257       0.76230217
C       -1.50526033      -0.80883455      -0.59261401
H        2.23194469       1.32930210       0.71387628
H        2.54678449       1.65929981      -1.07418049
H       -0.69822539       1.76526623      -0.96544955
H        1.29712864      -0.62947303       1.37413116
H        0.84658665      -1.88659782       0.19109662
H       -2.33954610       0.64337457       0.87241536
H       -1.70279528      -0.88417727       1.62366466
H       -1.40429329      -1.88416337      -0.67955116
H       -1.99709566      -0.32564712      -1.42756366
16
Frame=1 idx=011698 GeodesicLength=0.03332192835001243 rxn_smarts="[C:1]1([H:8])([H:9])[C@@:2]2([H:10])[N:3]1[C:4]([H:11])([H:12])[C:5]21[C:6]([H:13])([H:14])[C:7]1([H:15])[H:16]>>[C:1](=[N:3][C:4]([C:5]1([C:2][H:10])[C:6]([H:13])([H:14])[C:7]1([H:15])[H:16])([H:11])[H:12])([H:8])[H:9]"
C        2.10181842       1.02263004      -0.31071479
C       -0.01429344       1.29870122      -0.24680201
N        1.76584407      -0.17872326      -0.66969260
C        0.93980659      -0.81237359       0.34418816
C       -0.36727451      -0.07093238       0.05453367
C       -1.70373937      -0.22529465       0.76527270
C       -1.51432349      -0.81432047      -0.58788530
H        2.23212541       1.32605394       0.72835279
H        2.56787103       1.66807810      -1.05329714
H       -0.69769395       1.75788346      -0.98137218
H        1.29372679      -0.63365343       1.36789343
H        0.85090282      -1.88516071       0.17606530
H       -2.33277261       0.64959981       0.87486030
H       -1.69407802      -0.87692168       1.62989827
H       -1.41591242      -1.89025855      -0.66957566
H       -2.01200733      -0.33530785      -1.42172493
16
Frame=2 idx=011698 GeodesicLength=0.0665532503727378 rxn_smarts="[C:1]1([H:8])([H:9])[C@@:2]2([H:10])[N:3]1[C:4]([H:11])([H:12])[C:5]21[C:6]([H:13])([H:14])[C:7]1([H:15])[H:16]>>[C:1](=[N:3][C:4]([C:5]1([C:2][H:10])[C:6]([H:13])([H:14])[C:7]1([H:15])[H:16])([H:11])[H:12])([H:8])[H:9]"
C        2.10293953       1.03304092      -0.30066177
C       -0.01180830       1.28950451      -0.26651925
N        1.76157316      -0.16616439      -0.67417450
C        0.93860608      -0.81164901       0.33666598
C       -0.37027637      -0.07614201       0.04635708
C       -1.70148047      -0.22235252       0.76812536
C       -1.52323607      -0.81967115      -0.58316521
H        2.23220185       1.32277677       0.74254275
H        2.58821647       1.67642458      -1.03244553
H       -0.69709813       1.75058379      -0.99711445
H        1.29044043      -0.63785829       1.36170188
H        0.85522536      -1.88370526       0.16111504
H       -2.32590389       0.65584825       0.87711426
H       -1.68530676      -0.86969417       1.63591013
H       -1.42736905      -1.89620417      -0.65962126
H       -2.02672383      -0.34473784      -1.41583050
16
Frame=3 idx=011698 GeodesicLength=0.0997216228042478 rxn_smarts="[C:1]1([H:8])([H:9])[C@@:2]2([H:10])[N:3]1[C:4]([H:11])([H:12])[C:5]21[C:6]([H:13])([H:14])[C:7]1([H:15])[H:16]>>[C:1](=[N:3][C:4]([C:5]1([C:2][H:10])[C:6]([H:13])([H:14])[C:7]1([H:15])[H:16])([H:11])[H:12])([H:8])[H:9]"
C        2.10351927       1.04342795      -0.29062783
C       -0.00933461       1.28017982      -0.28607792
N        1.75739825      -0.15371107      -0.67841638
C        0.93740618      -0.81093972       0.32914966
C       -0.37318171      -0.08135683       0.03820593
C       -1.69901104      -0.21931413       0.77087286
C       -1.53189568      -0.82486661      -0.57842306
H        2.23196966       1.31938492       0.75651327
H        2.60768723       1.68431824      -1.01151165
H       -0.69636249       1.74319294      -1.01271106
H        1.28714465      -0.64208542       1.35547465
H        0.85951609      -1.88213161       0.14610401
H       -2.31878774       0.66214968       0.87920935
H       -1.67636547      -0.86234208       1.64170627
H       -1.43858307      -1.90192528      -0.64964719
H       -2.04111952      -0.35398080      -1.40982092
16
Frame=4 idx=011698 GeodesicLength=0.13282013025208816 rxn_smarts="[C:1]1([H:8])([H:9])[C@@:2]2([H:10])[N:3]1[C:4]([H:11])([H:12])[C:5]21[C:6]([H:13])([H:14])[C:7]1([H:15])[H:16]>>[C:1](=[N:3][C:4]([C:5]1([C:2][H:10])[C:6]([H:13])([H:14])[C:7]1([H:15])[H:16])([H:11])[H:12])([H:8])[H:9]"
C        2.10374140       1.05383526      -0.28079178
C       -0.00685166       1.27087058      -0.30529255
N        1.75335371      -0.14144729      -0.68240157
C        0.93626925      -0.81027283       0.32185439
C       -0.37603864      -0.08656624       0.03018993
C       -1.69653248      -0.21631462       0.77347300
C       -1.54039674      -0.82991077      -0.57375517
H        2.23190318       1.31596901       0.77007149
H        2.62636786       1.69181500      -0.99089958
H       -0.69556649       1.73601966      -1.02792148
H        1.28401967      -0.64623527       1.34941659
H        0.86378117      -1.88057874       0.13144561
H       -2.31169884       0.66839552       0.88109033
H       -1.66751915      -0.85517652       1.64721013
H       -1.44958318      -1.90748980      -0.63984186
H       -2.05524906      -0.36291294      -1.40384747
16
Frame=5 idx=011698 GeodesicLength=0.16561182787957957 rxn_smarts="[C:1]1([H:8])([H:9])[C@@:2]2([H:10])[N:3]1[C:4]([H:11])([H:12])[C:5]21[C:6]([H:13])([H:14])[C:7]1([H:15])[H:16]>>[C:1](=[N:3][C:4]([C:5]1([C:2][H:10])[C:6]([H:13])([H:14])[C:7]1([H:15])[H:16])([H:11])[H:12])([H:8])[H:9]"
C        2.10345071       1.06407968      -0.27128663
C       -0.00434741       1.26154028      -0.32392925
N        1.74929650      -0.12947104      -0.68612698
C        0.93513654      -0.80952399       0.31487750
C       -0.37881983      -0.09173004       0.02240675
C       -1.69402161      -0.21340624       0.77590173
C       -1.54854334      -0.83470528      -0.56923529
H        2.23195124       1.31248244       0.78297173
H        2.64396630       1.69851950      -0.97082056
H       -0.69467730       1.72909290      -1.04237445
H        1.28094386      -0.65003825       1.34354971
H        0.86799204      -1.87886679       0.11736164
H       -2.30462898       0.67444340       0.88279125
H       -1.65882005      -0.84828863       1.65231426
H       -1.46009598      -1.91271495      -0.63042449
H       -2.06878268      -0.37141301      -1.39797694
16
Frame=6 idx=011698 GeodesicLength=0.19830397426989949 rxn_smarts="[C:1]1([H:8])([H:9])[C@@:2]2([H:10])[N:3]1[C:4]([H:11])([H:12])[C:5]21[C:6]([H:13])([H:14])[C:7]1([H:15])[H:16]>>[C:1](=[N:3][C:4]([C:5]1([C:2][H:10])[C:6]([H:13])([H:14])[C:7]1([H:15])[H:16])([H:11])[H:12])([H:8])[H:9]"
C        2.10281172       1.07428974      -0.26208089
C       -0.00182980       1.25223611      -0.34206473
N        1.74526765      -0.11776412      -0.68961351
C        0.93403161      -0.80877236       0.30822257
C       -0.38155866      -0.09687432       0.01482998
C       -1.69154348      -0.21059381       0.77816691
C       -1.55646368      -0.83931735      -0.56485126
H        2.23231741       1.30895119       0.79533129
H        2.66068012       1.70476751      -0.95130468
H       -0.69370634       1.72245208      -1.05621394
H        1.27800602      -0.65361868       1.33793324
H        0.87213934      -1.87714069       0.10384305
H       -2.29764445       0.68034696       0.88429262
H       -1.65031716      -0.84169230       1.65706382
H       -1.47028762      -1.91772980      -0.62133501
H       -2.08190269      -0.37954015      -1.39221946
16
Frame=7 idx=011698 GeodesicLength=0.2308862857095669 rxn_smarts="[C:1]1([H:8])([H:9])[C@@:2]2([H:10])[N:3]1[C:4]([H:11])([H:12])[C:5]21[C:6]([H:13])([H:14])[C:7]1([H:15])[H:16]>>[C:1](=[N:3][C:4]([C:5]1([C:2][H:10])[C:6]([H:13])([H:14])[C:7]1([H:15])[H:16])([H:11])[H:12])([H:8])[H:9]"
C        2.10179055       1.08446875      -0.25309427
C        0.00069161       1.24292840      -0.35980070
N        1.74128140      -0.10627758      -0.69288450
C        0.93294809      -0.80800959       0.30179962
C       -0.38424265      -0.10200113       0.00740682
C       -1.68904418      -0.20783520       0.78029526
C       -1.56416490      -0.84376305      -0.56056452
H        2.23285978       1.30535221       0.80723329
H        2.67657598       1.71056065      -0.93216239
H       -0.69264459       1.71600490      -1.06957459
H        1.27515515      -0.65702018       1.33248153
H        0.87624784      -1.87536455       0.09072871
H       -2.29067592       0.68614211       0.88562046
H       -1.64192364      -0.83528699       1.66152189
H       -1.48019369      -1.92254113      -0.61248433
H       -2.09466081      -0.38735763      -1.38652229
16
Frame=8 idx=011698 GeodesicLength=0.2633893034197527 rxn_smarts="[C:1]1([H:8])([H:9])[C@@:2]2([H:10])[N:3]1[C:4]([H:11])([H:12])[C:5]21[C:6]([H:13])([H:14])[C:7]1([H:15])[H:16]>>[C:1](=[N:3][C:4]([C:5]1([C:2][H:10])[C:6]([H:13])([H:14])[C:7]1([H:15])[H:16])([H:11])[H:12])([H:8])[H:9]"
C        2.10039270       1.09464483      -0.24426382
C        0.00320963       1.23360543      -0.37722564
N        1.73735754      -0.09497493      -0.69595799
C        0.93188811      -0.80724857       0.29554679
C       -0.38687006      -0.10711792       0.00009413
C       -1.68649643      -0.20510157       0.78230669
C       -1.57167968      -0.84806375      -0.55634425
H        2.23350781       1.30168033       0.81875369
H        2.69173432       1.71596705      -0.91325585
H       -0.69148429       1.70968896      -1.08259115
H        1.27238139      -0.66030186       1.32714550
H        0.88033212      -1.87354551       0.07790750
H       -2.28368254       0.69186809       0.88679290
H       -1.63358323      -0.82900981       1.66573687
H       -1.48987496      -1.92717668      -0.60379888
H       -2.10713243      -0.39491410      -1.38084649
16
Frame=9 idx=011698 GeodesicLength=0.29584426190616203 rxn_smarts="[C:1]1([H:8])([H:9])[C@@:2]2([H:10])[N:3]1[C:4]([H:11])([H:12])[C:5]21[C:6]([H:13])([H:14])[C:7]1([H:15])[H:16]>>[C:1](=[N:3][C:4]([C:5]1([C:2][H:10])[C:6]([H:13])([H:14])[C:7]1([H:15])[H:16])([H:11])[H:12])([H:8])[H:9]"
C        2.09861724       1.10484603      -0.23552790
C        0.00571921       1.22425311      -0.39442278
N        1.73351586      -0.08381953      -0.69884957
C        0.93085363      -0.80650343       0.28940275
C       -0.38943878      -0.11223310      -0.00714929
C       -1.68387295      -0.20236136       0.78421699
C       -1.57903639      -0.85224099      -0.55215811
H        2.23419470       1.29792523       0.82996660
H        2.70622100       1.72105004      -0.89445338
H       -0.69022317       1.70344562      -1.09538209
H        1.26967554      -0.66352685       1.32187649
H        0.88440446      -1.87168934       0.06526456
H       -2.27662361       0.69756706       0.88781748
H       -1.62524070      -0.82278908       1.66975328
H       -1.49938384      -1.93166236      -0.59520119
H       -2.11938220      -0.40226106      -1.37515382
16
Frame=10 idx=011698 GeodesicLength=0.32828100094689117 rxn_smarts="[C:1]1([H:8])([H:9])[C@@:2]2([H:10])[N:3]1[C:4]([H:11])([H:12])[C:5]21[C:6]([H:13])([H:14])[C:7]1([H:15])[H:16]>>[C:1](=[N:3][C:4]([C:5]1([C:2][H:10])[C:6]([H:13])([H:14])[C:7]1([H:15])[H:16])([H:11])[H:12])([H:8])[H:9]"
C        2.09647807       1.11511803      -0.22681232
C        0.00821614       1.21487147      -0.41150473
N        1.72980005      -0.07276641      -0.70157155
C        0.92986070      -0.80580359       0.28329851
C       -0.39194897      -0.11735841      -0.01437256
C       -1.68114976      -0.19957926       0.78604423
C       -1.58629168      -0.85632473      -0.54796839
H        2.23486040       1.29409618       0.84096362
H        2.72013452       1.72589839      -0.87558638
H       -0.68887222       1.69722787      -1.10811050
H        1.26705606      -0.66678414       1.31662259
H        0.88848689      -1.86982810       0.05266804
H       -2.26946111       0.70329433       0.88869677
H       -1.61683487      -0.81655659       1.67362813
H       -1.50881047      -1.93604912      -0.58658906
H       -2.13152375      -0.40945592      -1.36940639
16
Frame=11 idx=011698 GeodesicLength=0.36073036974864625 rxn_smarts="[C:1]1([H:8])([H:9])[C@@:2]2([H:10])[N:3]1[C:4]([H:11])([H:12])[C:5]21[C:6]([H:13])([H:14])[C:7]1([H:15])[H:16]>>[C:1](=[N:3][C:4]([C:5]1([C:2][H:10])[C:6]([H:13])([H:14])[C:7]1([H:15])[H:16])([H:11])[H:12])([H:8])[H:9]"
C        2.09392805       1.12544148      -0.21804820
C        0.01070982       1.20539428      -0.42852882
N        1.72620693      -0.06180277      -0.70413443
C        0.92889356      -0.80516064       0.27716204
C       -0.39438293      -0.12250546      -0.02161113
C       -1.67826761      -0.19670090       0.78779895
C       -1.59341538      -0.86031450      -0.54373368
H        2.23535182       1.29014591       0.85181241
H        2.73339284       1.73057942      -0.85654658
H       -0.68737940       1.69092003      -1.12085809
H        1.26447145      -0.67013657       1.31131277
H        0.89257505      -1.86793015       0.03997844
H       -2.26211282       0.70910617       0.88943566
H       -1.60830002      -0.81019716       1.67738004
H       -1.51814767      -1.94030872      -0.57788080
H       -2.14352368      -0.41653041      -1.36353858
16
Frame=12 idx=011698 GeodesicLength=0.3931135412237895 rxn_smarts="[C:1]1([H:8])([H:9])[C@@:2]2([H:10])[N:3]1[C:4]([H:11])([H:12])[C:5]21[C:6]([H:13])([H:14])[C:7]1([H:15])[H:16]>>[C:1](=[N:3][C:4]([C:5]1([C:2][H:10])[C:6]([H:13])([H:14])[C:7]1([H:15])[H:16])([H:11])[H:12])([H:8])[H:9]"
C        2.09100294       1.13574873      -0.20943392
C        0.01320864       1.19589824      -0.44523965
N        1.72263276      -0.05103278      -0.70653411
C        0.92793499      -0.80450106       0.27119526
C       -0.39675951      -0.12764007      -0.02873577
C       -1.67533379      -0.19385428       0.78944477
C       -1.60034200      -0.86415336      -0.53957309
H        2.23597615       1.28610392       0.86225764
H        2.74590177       1.73487706      -0.83773480
H       -0.68577943       1.68472614      -1.13324755
H        1.26193653      -0.67333414       1.30611587
H        0.89663437      -1.86597155       0.02760701
H       -2.25473410       0.71482538       0.89004027
H       -1.59981764      -0.80396747       1.68090501
H       -1.52725419      -1.94437677      -0.56935415
H       -2.15520749      -0.42334801      -1.35771280
16
Frame=13 idx=011698 GeodesicLength=0.42546127147904284 rxn_smarts="[C:1]1([H:8])([H:9])[C@@:2]2([H:10])[N:3]1[C:4]([H:11])([H:12])[C:5]21[C:6]([H:13])([H:14])[C:7]1([H:15])[H:16]>>[C:1](=[N:3][C:4]([C:5]1([C:2][H:10])[C:6]([H:13])([H:14])[C:7]1([H:15])[H:16])([H:11])[H:12])([H:8])[H:9]"
C        2.08776501       1.14608097      -0.20089497
C        0.01572077       1.18638546      -0.46173169
N        1.71913953      -0.04042665      -0.70877218
C        0.92701073      -0.80388126       0.26535190
C       -0.39908247      -0.13278185      -0.03578567
C       -1.67235023      -0.19100702       0.79099200
C       -1.60714503      -0.86788056      -0.53545398
H        2.23672555       1.28198343       0.87239273
H        2.75772574       1.73898521      -0.81905853
H       -0.68406567       1.67862266      -1.14542873
H        1.25949275      -0.67649004       1.30100718
H        0.90068377      -1.86402237       0.01544903
H       -2.24731316       0.72052717       0.89049976
H       -1.59136594      -0.79781468       1.68424542
H       -1.53624162      -1.94832391      -0.56091546
H       -2.16669974      -0.42995656      -1.35189680
16
Frame=14 idx=011698 GeodesicLength=0.4578004112057085 rxn_smarts="[C:1]1([H:8])([H:9])[C@@:2]2([H:10])[N:3]1[C:4]([H:11])([H:12])[C:5]21[C:6]([H:13])([H:14])[C:7]1([H:15])[H:16]>>[C:1](=[N:3][C:4]([C:5]1([C:2][H:10])[C:6]([H:13])([H:14])[C:7]1([H:15])[H:16])([H:11])[H:12])([H:8])[H:9]"
C        2.08417189       1.15644673      -0.19236139
C        0.01824630       1.17682054      -0.47808990
N        1.71573901      -0.02995122      -0.71085958
C        0.92611617      -0.80330955       0.25955613
C       -0.40133991      -0.13793774      -0.04280173
C       -1.66926328      -0.18811567       0.79245855
C       -1.61382559      -0.87150056      -0.53133614
H        2.23746041       1.27777008       0.88228993
H        2.76887326       1.74292643      -0.80035938
H       -0.68221946       1.67251392      -1.15752639
H        1.25711502      -0.67966802       1.29591640
H        0.90473112      -1.86206424       0.00336170
H       -2.23977505       0.72625564       0.89082684
H       -1.58286362      -0.79164625       1.68744167
H       -1.54513792      -1.95214409      -0.55248009
H       -2.17802834      -0.43639600      -1.34603663
16
Frame=15 idx=011698 GeodesicLength=0.4901067333663388 rxn_smarts="[C:1]1([H:8])([H:9])[C@@:2]2([H:10])[N:3]1[C:4]([H:11])([H:12])[C:5]21[C:6]([H:13])([H:14])[C:7]1([H:15])[H:16]>>[C:1](=[N:3][C:4]([C:5]1([C:2][H:10])[C:6]([H:13])([H:14])[C:7]1([H:15])[H:16])([H:11])[H:12])([H:8])[H:9]"
C        2.08026051       1.16680836      -0.18390796
C        0.02079549       1.16722827      -0.49420522
N        1.71238927      -0.01965683      -0.71279654
C        0.92524300      -0.80276433       0.25389609
C       -0.40353989      -0.14309837      -0.04973171
C       -1.66612368      -0.18523133       0.79382740
C       -1.62035852      -0.87499611      -0.52727100
H        2.23832226       1.27347163       0.89184775
H        2.77929075       1.74666624      -0.78183480
H       -0.68024235       1.66649000      -1.16937179
H        1.25480235      -0.68277155       1.29092142
H        0.90876200      -1.86009757      -0.00848148
H       -2.23218846       0.73194681       0.89102101
H       -1.57440027      -0.78556417       1.69044896
H       -1.55389126      -1.95581755      -0.54416280
H       -2.18912121      -0.44261350      -1.34019934
16
Frame=16 idx=011698 GeodesicLength=0.5223593706550007 rxn_smarts="[C:1]1([H:8])([H:9])[C@@:2]2([H:10])[N:3]1[C:4]([H:11])([H:12])[C:5]21[C:6]([H:13])([H:14])[C:7]1([H:15])[H:16]>>[C:1](=[N:3][C:4]([C:5]1([C:2][H:10])[C:6]([H:13])([H:14])[C:7]1([H:15])[H:16])([H:11])[H:12])([H:8])[H:9]"
C        2.07607157       1.17713110      -0.17559925
C        0.02337724       1.15763101      -0.50998503
N        1.70905426      -0.00958554      -0.71458550
C        0.92438266      -0.80222490       0.24844825
C       -0.40568958      -0.14825517      -0.05653125
C       -1.66297790      -0.18240082       0.79508535
C       -1.62672395      -0.87835409      -0.52330406
H        2.23943332       1.26909764       0.90097578
H        2.78894495       1.75017834      -0.76365864
H       -0.67813501       1.66063178      -1.18081532
H        1.25254945      -0.68571444       1.28609034
H        0.91276422      -1.85812190      -0.01992824
H       -2.22461569       0.73754157       0.89108567
H       -1.56605702      -0.77965872       1.69323126
H       -1.56246032      -1.95932925      -0.53606477
H       -2.19991820      -0.44856662      -1.33444459
