17
Frame=0 idx=011560 GeodesicLength=0.0 rxn_smarts="[C:1]([O:2][C:3]([C:4]([H:11])([H:12])[H:13])([C:5]([H:14])([H:15])[H:16])[C:6]#[C:7][H:17])([H:8])([H:9])[H:10]>>[C:1]([O:2][C@@:3]1([C:5]([H:14])([H:15])[H:16])[C:4]([H:11])([H:12])[C:7]([H:13])([H:17])[C:6]1)([H:8])([H:9])[H:10]"
C       -2.12407061      -0.53371851      -0.44700919
O       -0.75813425      -0.88901007      -0.52575150
C        0.12526270      -0.01201591       0.13230342
C        1.53561276      -0.34671066      -0.37115253
C        0.01250300      -0.08102244       1.64671644
C        0.10068940       1.44618265      -0.37224778
C        1.21256722       1.32080939      -1.11852903
H       -2.27801543       0.50984582      -0.73380660
H       -2.65523207      -1.18818921      -1.13628268
H       -2.52456853      -0.68732227       0.56049942
H        1.68356405      -1.29913868      -0.89360254
H        2.35035849      -0.14665551       0.31577047
H        1.38799601       0.22196194      -1.58853607
H        0.75936902       0.56233866       2.11497929
H        0.14858609      -1.10662071       1.99657828
H       -0.96486706       0.28241200       1.96209182
H        1.98837928       1.94685357      -1.54202119
17
Frame=1 idx=011560 GeodesicLength=0.0834703352063789 rxn_smarts="[C:1]([O:2][C:3]([C:4]([H:11])([H:12])[H:13])([C:5]([H:14])([H:15])[H:16])[C:6]#[C:7][H:17])([H:8])([H:9])[H:10]>>[C:1]([O:2][C@@:3]1([C:5]([H:14])([H:15])[H:16])[C:4]([H:11])([H:12])[C:7]([H:13])([H:17])[C:6]1)([H:8])([H:9])[H:10]"
C       -2.12404986      -0.53032691      -0.44275271
O       -0.75647533      -0.87410467      -0.53958071
C        0.13218590      -0.01334807       0.13445295
C        1.54075537      -0.34966715      -0.37022547
C        0.00913913      -0.08125122       1.64670599
C        0.09629551       1.43467339      -0.38782605
C        1.20962843       1.32562495      -1.13490500
H       -2.28837045       0.51874650      -0.70197057
H       -2.65490322      -1.17021518      -1.14583124
H       -2.51723111      -0.71340473       0.56260968
H        1.68524041      -1.31643218      -0.86568404
H        2.35417086      -0.14249000       0.31680106
H        1.40386539       0.20640967      -1.60252802
H        0.75752932       0.55796143       2.11809306
H        0.13860720      -1.10817361       1.99521911
H       -0.96718177       0.28805196       1.95851276
H        1.98079422       1.96794581      -1.54109081
17
Frame=2 idx=011560 GeodesicLength=0.16689592594576197 rxn_smarts="[C:1]([O:2][C:3]([C:4]([H:11])([H:12])[H:13])([C:5]([H:14])([H:15])[H:16])[C:6]#[C:7][H:17])([H:8])([H:9])[H:10]>>[C:1]([O:2][C@@:3]1([C:5]([H:14])([H:15])[H:16])[C:4]([H:11])([H:12])[C:7]([H:13])([H:17])[C:6]1)([H:8])([H:9])[H:10]"
C       -2.12374775      -0.52691858      -0.43872990
O       -0.75475682      -0.85921228      -0.55280431
C        0.13901569      -0.01456506       0.13670504
C        1.54567925      -0.35280160      -0.36946358
C        0.00586339      -0.08153043       1.64679188
C        0.09214569       1.42314921      -0.40296996
C        1.20648931       1.33059499      -1.15119531
H       -2.29771882       0.52683132      -0.67095044
H       -2.65450729      -1.15219231      -1.15492424
H       -2.50966041      -0.73842813       0.56378813
H        1.68635123      -1.33326968      -0.83739826
H        2.35787309      -0.13864721       0.31752143
H        1.41960892       0.19060579      -1.61647183
H        0.75590452       0.55328574       2.12137356
H        0.12869143      -1.10976305       1.99387510
H       -0.96935710       0.29360136       1.95509355
H        1.97212567       1.98925994      -1.54024088
17
Frame=3 idx=011560 GeodesicLength=0.2502757538123326 rxn_smarts="[C:1]([O:2][C:3]([C:4]([H:11])([H:12])[H:13])([C:5]([H:14])([H:15])[H:16])[C:6]#[C:7][H:17])([H:8])([H:9])[H:10]>>[C:1]([O:2][C@@:3]1([C:5]([H:14])([H:15])[H:16])[C:4]([H:11])([H:12])[C:7]([H:13])([H:17])[C:6]1)([H:8])([H:9])[H:10]"
C       -2.12316745      -0.52348716      -0.43494363
O       -0.75296638      -0.84437723      -0.56541473
C        0.14575742      -0.01566920       0.13905971
C        1.55038923      -0.35611929      -0.36886487
C        0.00267999      -0.08187335       1.64697676
C        0.08824314       1.41162743      -0.41765455
C        1.20314565       1.33574687      -1.16737306
H       -2.30606854       0.53414993      -0.64085237
H       -2.65402807      -1.13418396      -1.16354748
H       -2.50190432      -0.76232197       0.56409580
H        1.68693612      -1.34962484      -0.80876332
H        2.36147244      -0.13512644       0.31793209
H        1.43519672       0.17453327      -1.63037522
H        0.75449589       0.54829189       2.12482668
H        0.11883667      -1.11140395       1.99254355
H       -0.97138615       0.29905278       1.95184118
H        1.96236765       2.01078522      -1.53948652
17
Frame=4 idx=011560 GeodesicLength=0.3336173355849094 rxn_smarts="[C:1]([O:2][C:3]([C:4]([H:11])([H:12])[H:13])([C:5]([H:14])([H:15])[H:16])[C:6]#[C:7][H:17])([H:8])([H:9])[H:10]>>[C:1]([O:2][C@@:3]1([C:5]([H:14])([H:15])[H:16])[C:4]([H:11])([H:12])[C:7]([H:13])([H:17])[C:6]1)([H:8])([H:9])[H:10]"
C       -2.12231576      -0.52002423      -0.43139302
O       -0.75109406      -0.82963427      -0.57741794
C        0.15241691      -0.01665963       0.14151285
C        1.55489114      -0.35962515      -0.36842604
C       -0.00041125      -0.08228611       1.64725828
C        0.08459459       1.40012495      -0.43186738
C        1.19959757       1.34110462      -1.18341876
H       -2.31344892       0.54076805      -0.61171220
H       -2.65344573      -1.11622467      -1.17171943
H       -2.49400470      -0.78508715       0.56359959
H        1.68703941      -1.36547243      -0.77978279
H        2.36497584      -0.13192082       0.31803727
H        1.45060684       0.15816258      -1.64425060
H        0.75329829       0.54296866       2.12845247
H        0.10903508      -1.11310316       1.99121864
H       -0.97326644       0.30440652       1.94875579
H        1.95153118       2.03250223      -1.53884672
17
Frame=5 idx=011560 GeodesicLength=0.41693571580927424 rxn_smarts="[C:1]([O:2][C:3]([C:4]([H:11])([H:12])[H:13])([C:5]([H:14])([H:15])[H:16])[C:6]#[C:7][H:17])([H:8])([H:9])[H:10]>>[C:1]([O:2][C@@:3]1([C:5]([H:14])([H:15])[H:16])[C:4]([H:11])([H:12])[C:7]([H:13])([H:17])[C:6]1)([H:8])([H:9])[H:10]"
C       -2.12119725      -0.51652666      -0.42807713
O       -0.74913058      -0.81501203      -0.58882503
C        0.15900135      -0.01753726       0.14405920
C        1.55919203      -0.36332767      -0.36814293
C       -0.00341077      -0.08277016       1.64763220
C        0.08120856       1.38865819      -0.44560286
C        1.19584667       1.34669186      -1.19931325
H       -2.31990301       0.54675846      -0.58354252
H       -2.65274136      -1.09833494      -1.17947562
H       -2.48599966      -0.80675188       0.56237259
H        1.68670618      -1.38078902      -0.75046098
H        2.36839015      -0.12902590       0.31784102
H        1.46582159       0.14145124      -1.65810763
H        0.75230720       0.53731087       2.13224734
H        0.09927805      -1.11486142       1.98989565
H       -0.97499597       0.30966897       1.94583287
H        1.93962682       2.05439734      -1.53833291
17
Frame=6 idx=011560 GeodesicLength=0.5002366482245216 rxn_smarts="[C:1]([O:2][C:3]([C:4]([H:11])([H:12])[H:13])([C:5]([H:14])([H:15])[H:16])[C:6]#[C:7][H:17])([H:8])([H:9])[H:10]>>[C:1]([O:2][C@@:3]1([C:5]([H:14])([H:15])[H:16])[C:4]([H:11])([H:12])[C:7]([H:13])([H:17])[C:6]1)([H:8])([H:9])[H:10]"
C       -2.11982380      -0.51298924      -0.42498592
O       -0.74706714      -0.80054121      -0.59964886
C        0.16551847      -0.01830317       0.14669390
C        1.56329964      -0.36723173      -0.36801161
C       -0.00631911      -0.08333264       1.64809569
C        0.07808433       1.37724192      -0.45885772
C        1.19189345       1.35253408      -1.21503811
H       -2.32546605       0.55217370      -0.55637519
H       -2.65190644      -1.08054735      -1.18682108
H       -2.47792330      -0.82730869       0.56046977
H        1.68598391      -1.39554527      -0.72080719
H        2.37172305      -0.12643005       0.31734587
H        1.48082571       0.12436094      -1.67196096
H        0.75151606       0.53130654       2.13621139
H        0.08955575      -1.11668746       1.98856654
H       -0.97657226       0.31484144       1.94307116
H        1.92667772       2.07645820      -1.53794768
17
Frame=7 idx=011560 GeodesicLength=0.5835424464721117 rxn_smarts="[C:1]([O:2][C:3]([C:4]([H:11])([H:12])[H:13])([C:5]([H:14])([H:15])[H:16])[C:6]#[C:7][H:17])([H:8])([H:9])[H:10]>>[C:1]([O:2][C@@:3]1([C:5]([H:14])([H:15])[H:16])[C:4]([H:11])([H:12])[C:7]([H:13])([H:17])[C:6]1)([H:8])([H:9])[H:10]"
C       -2.11820304      -0.50940597      -0.42211453
O       -0.74489490      -0.78624559      -0.60991028
C        0.17197747      -0.01895981       0.14941193
C        1.56722366      -0.37134341      -0.36802493
C       -0.00913852      -0.08397460       1.64864314
C        0.07522844       1.36588696      -0.47163322
C        1.18773879       1.35865590      -1.23057494
H       -2.33018961       0.55708194      -0.53020076
H       -2.65092781      -1.06287211      -1.19379030
H       -2.46980645      -0.84679391       0.55795704
H        1.68492104      -1.40971745      -0.69082977
H        2.37498293      -0.12412217       0.31655731
H        1.49561325       0.10683411      -1.68581986
H        0.75091694       0.52495140       2.14033919
H        0.07985716      -1.11858135       1.98722435
H       -0.97799514       0.31993057       1.94046309
H        1.91269578       2.09867551      -1.53769748
17
Frame=8 idx=011560 GeodesicLength=0.6668403726885269 rxn_smarts="[C:1]([O:2][C:3]([C:4]([H:11])([H:12])[H:13])([C:5]([H:14])([H:15])[H:16])[C:6]#[C:7][H:17])([H:8])([H:9])[H:10]>>[C:1]([O:2][C@@:3]1([C:5]([H:14])([H:15])[H:16])[C:4]([H:11])([H:12])[C:7]([H:13])([H:17])[C:6]1)([H:8])([H:9])[H:10]"
C       -2.11634260      -0.50577311      -0.41945699
O       -0.74260850      -0.77214548      -0.61962772
C        0.17838662      -0.01951168       0.15220779
C        1.57097279      -0.37567215      -0.36817676
C       -0.01187187      -0.08469841       1.64927025
C        0.07264018       1.35460466      -0.48393459
C        1.18338200       1.36507630      -1.24591273
H       -2.33411488       0.56153222      -0.50501389
H       -2.64979954      -1.04532376      -1.20039656
H       -2.46167471      -0.86522529       0.55488140
H        1.68356551      -1.42327548      -0.66054093
H        2.37817753      -0.12209013       0.31547758
H        1.51017486       0.08882393      -1.69969731
H        0.75050083       0.51824082       2.14462834
H        0.07017118      -1.12054503       1.98586317
H       -0.97926526       0.32494210       1.93800303
H        1.89770586       2.12104050      -1.53757408
17
Frame=9 idx=011560 GeodesicLength=0.7502355314086161 rxn_smarts="[C:1]([O:2][C:3]([C:4]([H:11])([H:12])[H:13])([C:5]([H:14])([H:15])[H:16])[C:6]#[C:7][H:17])([H:8])([H:9])[H:10]>>[C:1]([O:2][C@@:3]1([C:5]([H:14])([H:15])[H:16])[C:4]([H:11])([H:12])[C:7]([H:13])([H:17])[C:6]1)([H:8])([H:9])[H:10]"
C       -2.11424628      -0.50208063      -0.41700872
O       -0.74019637      -0.75825779      -0.62882635
C        0.18476152      -0.01996703       0.15508200
C        1.57456462      -0.38020884      -0.36844642
C       -0.01452168      -0.08550348       1.64997464
C        0.07032357       1.34339503      -0.49577493
C        1.17882348       1.37183114      -1.26101812
H       -2.33730874       0.56558229      -0.48077084
H       -2.64851339      -1.02787010      -1.20670074
H       -2.45353557      -0.88266070       0.55130372
H        1.68196124      -1.43622509      -0.62997115
H        2.38131809      -0.12028795       0.31411990
H        1.52449871       0.07022152      -1.71361646
H        0.75024729       0.51118141       2.14907155
H        0.06049192      -1.12257438       1.98448366
H       -0.98038681       0.32987774       1.93567970
H        1.88171839       2.14354687      -1.53758143
17
Frame=10 idx=011560 GeodesicLength=0.8336387717384464 rxn_smarts="[C:1]([O:2][C:3]([C:4]([H:11])([H:12])[H:13])([C:5]([H:14])([H:15])[H:16])[C:6]#[C:7][H:17])([H:8])([H:9])[H:10]>>[C:1]([O:2][C@@:3]1([C:5]([H:14])([H:15])[H:16])[C:4]([H:11])([H:12])[C:7]([H:13])([H:17])[C:6]1)([H:8])([H:9])[H:10]"
C       -2.11193124      -0.49832871      -0.41475569
O       -0.73765695      -0.74459677      -0.63753076
C        0.19110575      -0.02032308       0.15802333
C        1.57800062      -0.38497243      -0.36883837
C       -0.01709100      -0.08638991       1.65074664
C        0.06827879       1.33227309      -0.50715957
C        1.17406039       1.37893266      -1.27589626
H       -2.33979485       0.56928678      -0.45747588
H       -2.64706144      -1.01055211      -1.21269871
H       -2.44542485      -0.89912042       0.54726990
H        1.68015733      -1.44852142      -0.59911138
H        2.38441125      -0.11872983       0.31247554
H        1.53858269       0.05099982      -1.72757747
H        0.75015626       0.50376237       2.15366443
H        0.05080210      -1.12467131       1.98306880
H       -0.98135603       0.33475157       1.93348780
H        1.86476119       2.16619970      -1.53769237
17
Frame=11 idx=011560 GeodesicLength=0.917041123580561 rxn_smarts="[C:1]([O:2][C:3]([C:4]([H:11])([H:12])[H:13])([C:5]([H:14])([H:15])[H:16])[C:6]#[C:7][H:17])([H:8])([H:9])[H:10]>>[C:1]([O:2][C@@:3]1([C:5]([H:14])([H:15])[H:16])[C:4]([H:11])([H:12])[C:7]([H:13])([H:17])[C:6]1)([H:8])([H:9])[H:10]"
C       -2.10940502      -0.49451502      -0.41269313
O       -0.73498466      -0.73116966      -0.64576829
C        0.19742909      -0.02058297       0.16102707
C        1.58128829      -0.38996837      -0.36934462
C       -0.01958248      -0.08735484       1.65157947
C        0.06650872       1.32124570      -0.51810192
C        1.16908925       1.38640191      -1.29053798
H       -2.34162262       0.57270441      -0.43509634
H       -2.64543325      -0.99336960      -1.21842594
H       -2.43736023      -0.91465389       0.54283516
H        1.67819776      -1.46014929      -0.56797453
H        2.38746530      -0.11740524       0.31054500
H        1.55242680       0.03108662      -1.74158380
H        0.75021853       0.49598496       2.15839919
H        0.04109120      -1.12683088       1.98161122
H       -0.98217319       0.33957340       1.93141693
H        1.84684653       2.18900276      -1.53788750
17
Frame=12 idx=011560 GeodesicLength=1.0004292955572764 rxn_smarts="[C:1]([O:2][C:3]([C:4]([H:11])([H:12])[H:13])([C:5]([H:14])([H:15])[H:16])[C:6]#[C:7][H:17])([H:8])([H:9])[H:10]>>[C:1]([O:2][C@@:3]1([C:5]([H:14])([H:15])[H:16])[C:4]([H:11])([H:12])[C:7]([H:13])([H:17])[C:6]1)([H:8])([H:9])[H:10]"
C       -2.10667562      -0.49063260      -0.41081535
O       -0.73217400      -0.71798651      -0.65356193
C        0.20374147      -0.02075057       0.16408965
C        1.58443746      -0.39520023      -0.36995326
C       -0.02199996      -0.08839699       1.65246819
C        0.06501504       1.31031623      -0.52861294
C        1.16390466       1.39425970      -1.30493360
H       -2.34282959       0.57587702      -0.41361164
H       -2.64362628      -0.97632341      -1.22390033
H       -2.42935196      -0.92929172       0.53803778
H        1.67612510      -1.47109381      -0.53658232
H        2.39048999      -0.11629684       0.30833032
H        1.56602294       0.01041016      -1.75564619
H        0.75042156       0.48784936       2.16327205
H        0.03134975      -1.12905004       1.98010482
H       -0.98284043       0.34434949       1.92945841
H        1.82798986       2.21196076      -1.53814367
17
Frame=13 idx=011560 GeodesicLength=1.0838141246072015 rxn_smarts="[C:1]([O:2][C:3]([C:4]([H:11])([H:12])[H:13])([C:5]([H:14])([H:15])[H:16])[C:6]#[C:7][H:17])([H:8])([H:9])[H:10]>>[C:1]([O:2][C@@:3]1([C:5]([H:14])([H:15])[H:16])[C:4]([H:11])([H:12])[C:7]([H:13])([H:17])[C:6]1)([H:8])([H:9])[H:10]"
C       -2.10374982      -0.48667812      -0.40911613
O       -0.72921969      -0.70504886      -0.66093926
C        0.21005313      -0.02083069       0.16720626
C        1.58745727      -0.40067260      -0.37065530
C       -0.02434602      -0.08951244       1.65340619
C        0.06379889       1.29948924      -0.53870935
C        1.15850367       1.40253194      -1.31906870
H       -2.34345957       0.57885374      -0.39298117
H       -2.64163499      -0.95940076      -1.22915516
H       -2.42140924      -0.94308721       0.53291644
H        1.67398451      -1.48133735      -0.50494843
H        2.39349429      -0.11538963       0.30583042
H        1.57936548      -0.01112735      -1.76976915
H        0.75075445       0.47935936       2.16827476
H        0.02156898      -1.13132222       1.97854274
H       -0.98335911       0.34908912       1.92760110
H        1.80819779       2.23508381      -1.53843526
17
Frame=14 idx=011560 GeodesicLength=1.1671809493093734 rxn_smarts="[C:1]([O:2][C:3]([C:4]([H:11])([H:12])[H:13])([C:5]([H:14])([H:15])[H:16])[C:6]#[C:7][H:17])([H:8])([H:9])[H:10]>>[C:1]([O:2][C@@:3]1([C:5]([H:14])([H:15])[H:16])[C:4]([H:11])([H:12])[C:7]([H:13])([H:17])[C:6]1)([H:8])([H:9])[H:10]"
C       -2.10063402      -0.48264657      -0.40759055
O       -0.72611832      -0.69236000      -0.66792539
C        0.21637344      -0.02082741       0.17037329
C        1.59035577      -0.40638827      -0.37144027
C       -0.02662391      -0.09069814       1.65438777
C        0.06285991       1.28876584      -0.54840682
C        1.15287984       1.41124227      -1.33293254
H       -2.34354459       0.58166535      -0.37318112
H       -2.63945757      -0.94260405      -1.23420333
H       -2.41353896      -0.95606367       0.52750052
H        1.67181658      -1.49086341      -0.47309909
H        2.39648777      -0.11466599       0.30304373
H        1.59244383      -0.03361363      -1.78396030
H        0.75120519       0.47051795       2.17340121
H        0.01174096      -1.13364181       1.97691855
H       -0.98373047       0.35379973       1.92583577
H        1.78748455       2.25838181      -1.53872142
17
Frame=15 idx=011560 GeodesicLength=1.250524519525491 rxn_smarts="[C:1]([O:2][C:3]([C:4]([H:11])([H:12])[H:13])([C:5]([H:14])([H:15])[H:16])[C:6]#[C:7][H:17])([H:8])([H:9])[H:10]>>[C:1]([O:2][C@@:3]1([C:5]([H:14])([H:15])[H:16])[C:4]([H:11])([H:12])[C:7]([H:13])([H:17])[C:6]1)([H:8])([H:9])[H:10]"
C       -2.09733354      -0.47853261      -0.40623295
O       -0.72286430      -0.67992088      -0.67454549
C        0.22271314      -0.02074622       0.17358746
C        1.59314283      -0.41235172      -0.37229680
C       -0.02883520      -0.09195056       1.65540742
C        0.06220093       1.27814561      -0.55772200
C        1.14702654       1.42041461      -1.34651305
H       -2.34311733       0.58435082      -0.35417981
H       -2.63708809      -0.92592084      -1.23907374
H       -2.40574865      -0.96825648       0.52181883
H        1.66966424      -1.49965679      -0.44105422
H        2.39948075      -0.11410867       0.29996745
H        1.60524947      -0.05715466      -1.79822141
H        0.75176373       0.46132841       2.17864467
H        0.00185849      -1.13600252       1.97522635
H       -0.98395419       0.35849013       1.92415253
H        1.76584118       2.28187238      -1.53896523
17
Frame=16 idx=011560 GeodesicLength=1.333839409347431 rxn_smarts="[C:1]([O:2][C:3]([C:4]([H:11])([H:12])[H:13])([C:5]([H:14])([H:15])[H:16])[C:6]#[C:7][H:17])([H:8])([H:9])[H:10]>>[C:1]([O:2][C@@:3]1([C:5]([H:14])([H:15])[H:16])[C:4]([H:11])([H:12])[C:7]([H:13])([H:17])[C:6]1)([H:8])([H:9])[H:10]"
C       -2.09385294      -0.47433145      -0.40503961
O       -0.71945347      -0.66772929      -0.68082412
C        0.22908189      -0.02059141       0.17684472
C        1.59582739      -0.41856482      -0.37321477
C       -0.03098175      -0.09326462       1.65645883
C        0.06182253       1.26762933      -0.56667322
C        1.14093620       1.43007838      -1.35979544
H       -2.34220794       0.58693899      -0.33595053
H       -2.63452447      -0.90934548      -1.24378439
H       -2.39804132      -0.97969577       0.51589510
H        1.66756815      -1.50770198      -0.40883922
H        2.40248332      -0.11369828       0.29659619
H        1.61776607      -0.08186325      -1.81255676
H        0.75241859       0.45179706       2.18399702
H       -0.00808309      -1.13839601       1.97345977
H       -0.98403086       0.36316850       1.92254086
H        1.74327170       2.30557010      -1.53911442
