10
Frame=0 idx=007764 GeodesicLength=0.0 rxn_smarts="[O:1]=[C:2]([n:3]1[c:4]([H:9])[n:5][c:6]([H:10])[n:7]1)[H:8]>>[O:1]=[C:2]([N:3]=[C:4]([N:5]=[C:6]=[N:7][H:10])[H:9])[H:8]"
O        2.60510954       0.79617487       0.18075394
C        1.91709916      -0.18761604       0.21645225
N        0.52309929      -0.21229931       0.09948756
C       -0.09504345       0.80854110      -0.37667428
N       -1.46737139       0.83735198      -0.46775671
C       -1.82487992      -0.30426132       0.01775546
N       -1.53474673      -1.38950312       0.49662464
H        2.33540685      -1.19369691       0.36804870
H        0.41545035       1.69396577      -0.74716867
H       -2.87412371      -0.84865702       0.21247709
10
Frame=1 idx=007764 GeodesicLength=0.05070414538231531 rxn_smarts="[O:1]=[C:2]([n:3]1[c:4]([H:9])[n:5][c:6]([H:10])[n:7]1)[H:8]>>[O:1]=[C:2]([N:3]=[C:4]([N:5]=[C:6]=[N:7][H:10])[H:9])[H:8]"
O        2.60116807       0.79001443       0.20162425
C        1.90999661      -0.19171209       0.22193639
N        0.51656781      -0.20962627       0.09442947
C       -0.09409469       0.80915566      -0.40100985
N       -1.46524330       0.83908724      -0.48018582
C       -1.83007968      -0.28052348       0.04977721
N       -1.51592993      -1.37366419       0.49914599
H        2.32444078      -1.20207988       0.35488062
H        0.41863087       1.70198765      -0.74907688
H       -2.86545654      -0.88263907       0.20847862
10
Frame=2 idx=007764 GeodesicLength=0.10206125850046505 rxn_smarts="[O:1]=[C:2]([n:3]1[c:4]([H:9])[n:5][c:6]([H:10])[n:7]1)[H:8]>>[O:1]=[C:2]([N:3]=[C:4]([N:5]=[C:6]=[N:7][H:10])[H:9])[H:8]"
O        2.59565574       0.78490040       0.22516646
C        1.90244212      -0.19524608       0.22987792
N        0.51008886      -0.20788119       0.08862997
C       -0.09330131       0.80939639      -0.42395276
N       -1.46337271       0.84241149      -0.48695858
C       -1.83471615      -0.25949561       0.07558792
N       -1.49785017      -1.35888537       0.49886067
H        2.31461555      -1.20932161       0.34004658
H        0.42183634       1.70655320      -0.75605157
H       -2.85539828      -0.91243163       0.20879340
10
Frame=3 idx=007764 GeodesicLength=0.1534246240844906 rxn_smarts="[O:1]=[C:2]([n:3]1[c:4]([H:9])[n:5][c:6]([H:10])[n:7]1)[H:8]>>[O:1]=[C:2]([N:3]=[C:4]([N:5]=[C:6]=[N:7][H:10])[H:9])[H:8]"
O        2.59247195       0.77699224       0.24115712
C        1.89518675      -0.19991876       0.23393016
N        0.50318016      -0.20399035       0.08686802
C       -0.09326234       0.81299661      -0.43950498
N       -1.46169765       0.84468297      -0.49599052
C       -1.83937361      -0.24306863       0.09062710
N       -1.48056534      -1.33833152       0.51142574
H        2.30284094      -1.21764180       0.32614881
H        0.42406410       1.71375100      -0.75732356
H       -2.84284496      -0.94547177       0.20266212
10
Frame=4 idx=007764 GeodesicLength=0.20507763986313865 rxn_smarts="[O:1]=[C:2]([n:3]1[c:4]([H:9])[n:5][c:6]([H:10])[n:7]1)[H:8]>>[O:1]=[C:2]([N:3]=[C:4]([N:5]=[C:6]=[N:7][H:10])[H:9])[H:8]"
O        2.59076091       0.76804222       0.25199209
C        1.88804606      -0.20457697       0.23753964
N        0.49603906      -0.19851725       0.08849584
C       -0.09351711       0.81788653      -0.45172593
N       -1.46032230       0.84840990      -0.50177392
C       -1.84431499      -0.22861197       0.10138267
N       -1.46382789      -1.31812180       0.52304422
H        2.28985279      -1.22587047       0.31510184
H        0.42618816       1.72039346      -0.75971332
H       -2.82890468      -0.97903365       0.19565685
10
Frame=5 idx=007764 GeodesicLength=0.2557584450226314 rxn_smarts="[O:1]=[C:2]([n:3]1[c:4]([H:9])[n:5][c:6]([H:10])[n:7]1)[H:8]>>[O:1]=[C:2]([N:3]=[C:4]([N:5]=[C:6]=[N:7][H:10])[H:9])[H:8]"
O        2.58872796       0.75897038       0.26375959
C        1.88082275      -0.20940793       0.24067498
N        0.48892240      -0.19326219       0.08921932
C       -0.09380585       0.82316234      -0.46332431
N       -1.45893963       0.85165821      -0.50888518
C       -1.84927664      -0.21619888       0.10718140
N       -1.44747334      -1.29783711       0.53429243
H        2.27675790      -1.23401183       0.30421944
H        0.42810742       1.72771038      -0.76059792
H       -2.81384296      -1.01078339       0.19346024
10
Frame=6 idx=007764 GeodesicLength=0.30706572440047153 rxn_smarts="[O:1]=[C:2]([n:3]1[c:4]([H:9])[n:5][c:6]([H:10])[n:7]1)[H:8]>>[O:1]=[C:2]([N:3]=[C:4]([N:5]=[C:6]=[N:7][H:10])[H:9])[H:8]"
O        2.58575768       0.75037748       0.27767954
C        1.87343557      -0.21412608       0.24432683
N        0.48193317      -0.18870232       0.08860695
C       -0.09397988       0.82806717      -0.47527572
N       -1.45740953       0.85519745      -0.51514070
C       -1.85426776      -0.20399655       0.11220104
N       -1.43165409      -1.27832429       0.54326511
H        2.26421037      -1.24156162       0.29285857
H        0.43015939       1.73416698      -0.76273364
H       -2.79818492      -1.04109822       0.19421202
10
Frame=7 idx=007764 GeodesicLength=0.35780843799945 rxn_smarts="[O:1]=[C:2]([n:3]1[c:4]([H:9])[n:5][c:6]([H:10])[n:7]1)[H:8]>>[O:1]=[C:2]([N:3]=[C:4]([N:5]=[C:6]=[N:7][H:10])[H:9])[H:8]"
O        2.58387161       0.74071968       0.28853155
C        1.86610571      -0.21910503       0.24707203
N        0.47477974      -0.18302018       0.08990480
C       -0.09427172       0.83401622      -0.48522082
N       -1.45592492       0.85813762      -0.52299734
C       -1.85959969      -0.19342085       0.11343326
N       -1.41635172      -1.25776169       0.55394109
H        2.25055192      -1.24949610       0.28252590
H        0.43185726       1.74183747      -0.76253084
H       -2.78101818      -1.07190714       0.19534038
10
Frame=8 idx=007764 GeodesicLength=0.4088142722829856 rxn_smarts="[O:1]=[C:2]([n:3]1[c:4]([H:9])[n:5][c:6]([H:10])[n:7]1)[H:8]>>[O:1]=[C:2]([N:3]=[C:4]([N:5]=[C:6]=[N:7][H:10])[H:9])[H:8]"
O        2.58181953       0.73104210       0.29936155
C        1.85871950      -0.22406542       0.24975891
N        0.46767817      -0.17742555       0.09087106
C       -0.09460329       0.84012679      -0.49470578
N       -1.45449447       0.86192111      -0.52926658
C       -1.86493194      -0.18362897       0.11336296
N       -1.40158995      -1.23742240       0.56364715
H        2.23683764      -1.25718733       0.27288852
H        0.43367804       1.74905017      -0.76329917
H       -2.76311323      -1.10241050       0.19738137
10
Frame=9 idx=007764 GeodesicLength=0.4599386647796724 rxn_smarts="[O:1]=[C:2]([n:3]1[c:4]([H:9])[n:5][c:6]([H:10])[n:7]1)[H:8]>>[O:1]=[C:2]([N:3]=[C:4]([N:5]=[C:6]=[N:7][H:10])[H:9])[H:8]"
O        2.57943108       0.72126181       0.31092817
C        1.85124443      -0.22913712       0.25227151
N        0.46062055      -0.17207028       0.09117607
C       -0.09489274       0.84640419      -0.50392930
N       -1.45300993       0.86571289      -0.53581996
C       -1.87029816      -0.17466363       0.11158906
N       -1.38744343      -1.21657805       0.57351477
H        2.22317533      -1.26474596       0.26294709
H        0.43551175       1.75638394      -0.76370266
H       -2.74433887      -1.13256780       0.20102525
10
Frame=10 idx=007764 GeodesicLength=0.5111852600876113 rxn_smarts="[O:1]=[C:2]([n:3]1[c:4]([H:9])[n:5][c:6]([H:10])[n:7]1)[H:8]>>[O:1]=[C:2]([N:3]=[C:4]([N:5]=[C:6]=[N:7][H:10])[H:9])[H:8]"
O        2.57567379       0.71208521       0.32603165
C        1.84364895      -0.23420090       0.25508881
N        0.45378296      -0.16791232       0.08911447
C       -0.09502699       0.85231937      -0.51382552
N       -1.45138268       0.86955225      -0.54235540
C       -1.87551283      -0.16616705       0.10878235
N       -1.37370272      -1.19634748       0.58158861
H        2.21058772      -1.27167982       0.25175401
H        0.43757186       1.76323749      -0.76474876
H       -2.72564007      -1.16088674       0.20856979
10
Frame=11 idx=007764 GeodesicLength=0.5625186348479371 rxn_smarts="[O:1]=[C:2]([n:3]1[c:4]([H:9])[n:5][c:6]([H:10])[n:7]1)[H:8]>>[O:1]=[C:2]([N:3]=[C:4]([N:5]=[C:6]=[N:7][H:10])[H:9])[H:8]"
O        2.57063967       0.70310917       0.34444461
C        1.83591298      -0.23946293       0.25793814
N        0.44710472      -0.16483690       0.08491498
C       -0.09495526       0.85809269      -0.52415553
N       -1.44952276       0.87259422      -0.55072803
C       -1.88065520      -0.15828203       0.10426709
N       -1.36046063      -1.17551606       0.58989144
H        2.19898212      -1.27816838       0.23851999
H        0.43966330       1.77033734      -0.76480675
H       -2.70670893      -1.18786712       0.21971407
10
Frame=12 idx=007764 GeodesicLength=0.6139244700880686 rxn_smarts="[O:1]=[C:2]([n:3]1[c:4]([H:9])[n:5][c:6]([H:10])[n:7]1)[H:8]>>[O:1]=[C:2]([N:3]=[C:4]([N:5]=[C:6]=[N:7][H:10])[H:9])[H:8]"
O        2.56444159       0.69411844       0.36547286
C        1.82803162      -0.24495874       0.26065833
N        0.44054866      -0.16267935       0.07887428
C       -0.09472342       0.86383687      -0.53474402
N       -1.44749343       0.87509759      -0.56047780
C       -1.88573388      -0.15112671       0.09793564
N       -1.34770025      -1.15395373       0.59854723
H        2.18822472      -1.28423487       0.22374410
H        0.44176113       1.77769162      -0.76391310
H       -2.68735673      -1.21379113       0.23390248
10
Frame=13 idx=007764 GeodesicLength=0.6653698866481184 rxn_smarts="[O:1]=[C:2]([n:3]1[c:4]([H:9])[n:5][c:6]([H:10])[n:7]1)[H:8]>>[O:1]=[C:2]([N:3]=[C:4]([N:5]=[C:6]=[N:7][H:10])[H:9])[H:8]"
O        2.55742568       0.68518705       0.38792657
C        1.82010948      -0.25045495       0.26347648
N        0.43416532      -0.16102763       0.07189234
C       -0.09434277       0.86952744      -0.54539659
N       -1.44531206       0.87749922      -0.57037162
C       -1.89063495      -0.14477592       0.09021711
N       -1.33527863      -1.13306664       0.60529332
H        2.17820640      -1.28970236       0.20857635
H        0.44391118       1.78493329      -0.76290338
H       -2.66824964      -1.23811950       0.25128942
10
Frame=14 idx=007764 GeodesicLength=0.7167925834179886 rxn_smarts="[O:1]=[C:2]([n:3]1[c:4]([H:9])[n:5][c:6]([H:10])[n:7]1)[H:8]>>[O:1]=[C:2]([N:3]=[C:4]([N:5]=[C:6]=[N:7][H:10])[H:9])[H:8]"
O        2.55033103       0.67608623       0.40979158
C        1.81218666      -0.25585889       0.26635924
N        0.42784197      -0.15916065       0.06533240
C       -0.09393919       0.87538639      -0.55557260
N       -1.44312794       0.88058139      -0.57903245
C       -1.89547253      -0.13948775       0.08104145
N       -1.32325257      -1.11302382       0.61015447
H        2.16825945      -1.29479099       0.19420580
H        0.44621152       1.79188528      -0.76247944
H       -2.64903840      -1.26161719       0.27019954
10
Frame=15 idx=007764 GeodesicLength=0.7680913332372096 rxn_smarts="[O:1]=[C:2]([n:3]1[c:4]([H:9])[n:5][c:6]([H:10])[n:7]1)[H:8]>>[O:1]=[C:2]([N:3]=[C:4]([N:5]=[C:6]=[N:7][H:10])[H:9])[H:8]"
O        2.54518840       0.66621941       0.42653529
C        1.80447920      -0.26106621       0.26892822
N        0.42140918      -0.15547644       0.06213840
C       -0.09359727       0.88205062      -0.56401623
N       -1.44099385       0.88420683      -0.58668006
C       -1.90044943      -0.13599532       0.06916861
N       -1.31186259      -1.09351329       0.61374565
H        2.15670079      -1.30028611       0.18279045
H        0.44830807       1.79936658      -0.76139862
H       -2.62918250      -1.28550608       0.28878830
10
Frame=16 idx=007764 GeodesicLength=0.8193390428315154 rxn_smarts="[O:1]=[C:2]([n:3]1[c:4]([H:9])[n:5][c:6]([H:10])[n:7]1)[H:8]>>[O:1]=[C:2]([N:3]=[C:4]([N:5]=[C:6]=[N:7][H:10])[H:9])[H:8]"
O        2.54084632       0.65609476       0.44105074
C        1.79683777      -0.26610691       0.27152013
N        0.41494230      -0.15095916       0.06050709
C       -0.09329645       0.88908339      -0.57155160
N       -1.43891978       0.88876009      -0.59261902
C       -1.90539507      -0.13402870       0.05512897
N       -1.30107063      -1.07461140       0.61610660
H        2.14444429      -1.30580544       0.17282977
H        0.45051106       1.80674349      -0.76079520
H       -2.60889981      -1.30917012       0.30782251
