10
Frame=0 idx=006145 GeodesicLength=0.0 rxn_smarts="[N:1]([c:2]1[c:3]([H:9])[c:4]([H:10])[n:5][o:6]1)([H:7])[H:8]>>[N:1](=[c:2]1\[c:3]([H:9])[c:4]([H:10])[n:5]([H:7])[o:6]1)\[H:8]"
N        1.65971743      -0.21354801      -0.08633136
C        0.50261611      -0.47020755      -0.64990886
C       -0.59604130       0.45820475      -0.81682905
C       -1.18518990       0.19835325       0.38043700
N       -0.60097997      -0.86911275       1.05407607
O        0.01309228      -1.58660891      -0.07116597
H        0.85526809      -0.34752982       1.02903157
H        1.97355115       0.73473457      -0.27053355
H       -0.69242387       1.30900267      -1.46769562
H       -1.92961002       0.78671179       0.89891977
10
Frame=1 idx=006145 GeodesicLength=0.06413163822150728 rxn_smarts="[N:1]([c:2]1[c:3]([H:9])[c:4]([H:10])[n:5][o:6]1)([H:7])[H:8]>>[N:1](=[c:2]1\[c:3]([H:9])[c:4]([H:10])[n:5]([H:7])[o:6]1)\[H:8]"
N        1.66556808      -0.21260937      -0.09308186
C        0.50402081      -0.46711922      -0.65145664
C       -0.59602006       0.45824167      -0.81404185
C       -1.19438851       0.19533728       0.37966386
N       -0.60692250      -0.86654475       1.05432432
O        0.01057342      -1.58085614      -0.06680120
H        0.86322658      -0.34978643       1.04745052
H        1.98479865       0.73071928      -0.29055017
H       -0.68469324       1.31443078      -1.45898375
H       -1.94616323       0.77818691       0.89347677
10
Frame=2 idx=006145 GeodesicLength=0.12823796421768272 rxn_smarts="[N:1]([c:2]1[c:3]([H:9])[c:4]([H:10])[n:5][o:6]1)([H:7])[H:8]>>[N:1](=[c:2]1\[c:3]([H:9])[c:4]([H:10])[n:5]([H:7])[o:6]1)\[H:8]"
N        1.67141261      -0.21157141      -0.09989663
C        0.50544023      -0.46396767      -0.65304100
C       -0.59593887       0.45839321      -0.81119542
C       -1.20374680       0.19221866       0.37870875
N       -0.61286756      -0.86385214       1.05459059
O        0.00819163      -1.57498450      -0.06233527
H        0.87123852      -0.35227093       1.06630314
H        1.99601195       0.72650059      -0.31090951
H       -0.67701141       1.31994343      -1.45005002
H       -1.96273030       0.76959076       0.88782537
10
Frame=3 idx=006145 GeodesicLength=0.19232653713691866 rxn_smarts="[N:1]([c:2]1[c:3]([H:9])[c:4]([H:10])[n:5][o:6]1)([H:7])[H:8]>>[N:1](=[c:2]1\[c:3]([H:9])[c:4]([H:10])[n:5]([H:7])[o:6]1)\[H:8]"
N        1.67725256      -0.21042486      -0.10678310
C        0.50687468      -0.46075185      -0.65466324
C       -0.59579830       0.45865971      -0.80828824
C       -1.21326963       0.18898763       0.37755987
N       -0.61881408      -0.86102512       1.05487572
O        0.00595421      -1.56898863      -0.05775820
H        0.87929830      -0.35499718       1.08561336
H        2.00718876       0.72207055      -0.33163389
H       -0.66937319       1.32554997      -1.44088071
H       -1.97931331       0.76091978       0.88195842
10
Frame=4 idx=006145 GeodesicLength=0.2564021893982911 rxn_smarts="[N:1]([c:2]1[c:3]([H:9])[c:4]([H:10])[n:5][o:6]1)([H:7])[H:8]>>[N:1](=[c:2]1\[c:3]([H:9])[c:4]([H:10])[n:5]([H:7])[o:6]1)\[H:8]"
N        1.68309117      -0.20916439      -0.11375015
C        0.50832369      -0.45746953      -0.65632270
C       -0.59559724       0.45904586      -0.80531351
C       -1.22295608       0.18564204       0.37621250
N       -0.62475810      -0.85804994       1.05518682
O        0.00386606      -1.56286060      -0.05305605
H        0.88740631      -0.35797484       1.10540606
H        2.01833446       0.71741049      -0.35276350
H       -0.66176729       1.33126961      -1.43145149
H       -1.99594299       0.75215131       0.87585202
10
Frame=5 idx=006145 GeodesicLength=0.3204652678801711 rxn_smarts="[N:1]([c:2]1[c:3]([H:9])[c:4]([H:10])[n:5][o:6]1)([H:7])[H:8]>>[N:1](=[c:2]1\[c:3]([H:9])[c:4]([H:10])[n:5]([H:7])[o:6]1)\[H:8]"
N        1.68893099      -0.20777979      -0.12080838
C        0.50978748      -0.45412012      -0.65802169
C       -0.59533546       0.45955257      -0.80227138
C       -1.23281115       0.18216914       0.37465019
N       -0.63070066      -0.85491410       1.05552133
O        0.00193513      -1.55659404      -0.04822024
H        0.89555386      -0.36122027       1.12570260
H        2.02943943       0.71251653      -0.37430695
H       -0.65419383       1.33710146      -1.42175111
H       -2.01260579       0.74328862       0.86950562
10
Frame=6 idx=006145 GeodesicLength=0.3845300685556443 rxn_smarts="[N:1]([c:2]1[c:3]([H:9])[c:4]([H:10])[n:5][o:6]1)([H:7])[H:8]>>[N:1](=[c:2]1\[c:3]([H:9])[c:4]([H:10])[n:5]([H:7])[o:6]1)\[H:8]"
N        1.69477579      -0.20626487      -0.12797281
C        0.51126545      -0.45070074      -0.65975994
C       -0.59501221       0.46018480      -0.79915399
C       -1.24283351       0.17856719       0.37286928
N       -0.63663585      -0.85160381       1.05588866
O        0.00016813      -1.55017954      -0.04323460
H        0.90374070      -0.36474281       1.14653451
H        2.04050852       0.70736452      -0.39630761
H       -0.64663963       1.34307010      -1.41175396
H       -2.02933739       0.73430515       0.86289046
10
Frame=7 idx=006145 GeodesicLength=0.4485919038121806 rxn_smarts="[N:1]([c:2]1[c:3]([H:9])[c:4]([H:10])[n:5][o:6]1)([H:7])[H:8]>>[N:1](=[c:2]1\[c:3]([H:9])[c:4]([H:10])[n:5]([H:7])[o:6]1)\[H:8]"
N        1.70062780      -0.20460930      -0.13525280
C        0.51275749      -0.44720923      -0.66153998
C       -0.59462724       0.46094557      -0.79595912
C       -1.25302336       0.17482844       0.37085700
N       -0.64256385      -0.84810403       1.05628945
O       -0.00142673      -1.54360790      -0.03808723
H        0.91196176      -0.36856043       1.16792632
H        2.05153573       0.70194344      -0.41878693
H       -0.63910283       1.34917974      -1.40144097
H       -2.04613877       0.72519369       0.85599428
10
Frame=8 idx=006145 GeodesicLength=0.5126597993459854 rxn_smarts="[N:1]([c:2]1[c:3]([H:9])[c:4]([H:10])[n:5][o:6]1)([H:7])[H:8]>>[N:1](=[c:2]1\[c:3]([H:9])[c:4]([H:10])[n:5]([H:7])[o:6]1)\[H:8]"
N        1.70649105      -0.20280652      -0.14266413
C        0.51426352      -0.44364251      -0.66336113
C       -0.59417977       0.46183909      -0.79267943
C       -1.26338160       0.17094717       0.36860482
N       -0.64847981      -0.84440225       1.05673196
O       -0.00284089      -1.53686939      -0.03276250
H        0.92021165      -0.37268246       1.18991233
H        2.06251996       0.69623177      -0.44178733
H       -0.63156986       1.35545308      -1.39078681
H       -2.06303424       0.71593203       0.84879222
10
Frame=9 idx=006145 GeodesicLength=0.5767229966016649 rxn_smarts="[N:1]([c:2]1[c:3]([H:9])[c:4]([H:10])[n:5][o:6]1)([H:7])[H:8]>>[N:1](=[c:2]1\[c:3]([H:9])[c:4]([H:10])[n:5]([H:7])[o:6]1)\[H:8]"
N        1.71236859      -0.20084493      -0.15023073
C        0.51578143      -0.44000104      -0.66523135
C       -0.59367054       0.46286748      -0.78931622
C       -1.27390507       0.16691549       0.36609806
N       -0.65438169      -0.84047705       1.05721486
O       -0.00406545      -1.52995277      -0.02724888
H        0.92848518      -0.37713512       1.21250982
H        2.07344166       0.69022462      -0.46529153
H       -0.62404891       1.36187962      -1.37978479
H       -2.08000521       0.70652370       0.84128076
10
Frame=10 idx=006145 GeodesicLength=0.6407891591293532 rxn_smarts="[N:1]([c:2]1[c:3]([H:9])[c:4]([H:10])[n:5][o:6]1)([H:7])[H:8]>>[N:1](=[c:2]1\[c:3]([H:9])[c:4]([H:10])[n:5]([H:7])[o:6]1)\[H:8]"
N        1.71826490      -0.19871075      -0.15796863
C        0.51731216      -0.43628141      -0.66715347
C       -0.59310038       0.46403174      -0.78586837
C       -1.28459207       0.16272134       0.36331947
N       -0.66027229      -0.83631484       1.05773406
O       -0.00508629      -1.52284674      -0.02153256
H        0.93676702      -0.38193454       1.23575406
H        2.08428816       0.68390675      -0.48932303
H       -0.61653759       1.36846337      -1.36841312
H       -2.09704363       0.69696507       0.83345159
10
Frame=11 idx=006145 GeodesicLength=0.7048585313777411 rxn_smarts="[N:1]([c:2]1[c:3]([H:9])[c:4]([H:10])[n:5][o:6]1)([H:7])[H:8]>>[N:1](=[c:2]1\[c:3]([H:9])[c:4]([H:10])[n:5]([H:7])[o:6]1)\[H:8]"
N        1.72418539      -0.19639841      -0.16589368
C        0.51885736      -0.43247519      -0.66912417
C       -0.59246619       0.46534145      -0.78232313
C       -1.29543665       0.15836825       0.36026938
N       -0.66614139      -0.83190237       1.05830874
O       -0.00589436      -1.51553535      -0.01559462
H        0.94505379      -0.38709999       1.25968824
H        2.09506064       0.67724693      -0.51394763
H       -0.60902042       1.37523688      -1.35664073
H       -2.11419817       0.68721782       0.82525761
10
Frame=12 idx=006145 GeodesicLength=0.7689284452647221 rxn_smarts="[N:1]([c:2]1[c:3]([H:9])[c:4]([H:10])[n:5][o:6]1)([H:7])[H:8]>>[N:1](=[c:2]1\[c:3]([H:9])[c:4]([H:10])[n:5]([H:7])[o:6]1)\[H:8]"
N        1.73013306      -0.19389419      -0.17402722
C        0.52041695      -0.42858017      -0.67114966
C       -0.59176942       0.46679704      -0.77868104
C       -1.30643595       0.15384477       0.35693075
N       -0.67198872      -0.82722421       1.05893679
O       -0.00647568      -1.50800578      -0.00942160
H        0.95333192      -0.39265225       1.28434708
H        2.10573791       0.67023254      -0.53917352
H       -0.60149967       1.38220053      -1.34445128
H       -2.13145040       0.67728174       0.81668971
10
Frame=13 idx=006145 GeodesicLength=0.8329907244469587 rxn_smarts="[N:1]([c:2]1[c:3]([H:9])[c:4]([H:10])[n:5][o:6]1)([H:7])[H:8]>>[N:1](=[c:2]1\[c:3]([H:9])[c:4]([H:10])[n:5]([H:7])[o:6]1)\[H:8]"
N        1.73611314      -0.19118874      -0.18240465
C        0.52198928      -0.42459833      -0.67324089
C       -0.59101292       0.46839520      -0.77494781
C       -1.31757512       0.14914370       0.35328994
N       -0.67781468      -0.82225840       1.05961067
O       -0.00681713      -1.50024410      -0.00300136
H        0.96158648      -0.39862708       1.30975649
H        2.11628536       0.66287161      -0.56496754
H       -0.59398756       1.38933449      -1.33184779
H       -2.14876685       0.66717166       0.80775293
10
Frame=14 idx=006145 GeodesicLength=0.8970412349852318 rxn_smarts="[N:1]([c:2]1[c:3]([H:9])[c:4]([H:10])[n:5][o:6]1)([H:7])[H:8]>>[N:1](=[c:2]1\[c:3]([H:9])[c:4]([H:10])[n:5]([H:7])[o:6]1)\[H:8]"
N        1.74213059      -0.18827347      -0.19104798
C        0.52357468      -0.42052175      -0.67539757
C       -0.59019506       0.47014443      -0.77111394
C       -1.32884497       0.14426796       0.34934253
N       -0.68361165      -0.81698810       1.06034618
O       -0.00690528      -1.49223017       0.00368909
H        0.96980729      -0.40504302       1.33596471
H        2.12669259       0.65512953      -0.59139108
H       -0.58646768       1.39666799      -1.31879176
H       -2.16618051       0.65684659       0.79839982
10
Frame=15 idx=006145 GeodesicLength=0.9610733808286357 rxn_smarts="[N:1]([c:2]1[c:3]([H:9])[c:4]([H:10])[n:5][o:6]1)([H:7])[H:8]>>[N:1](=[c:2]1\[c:3]([H:9])[c:4]([H:10])[n:5]([H:7])[o:6]1)\[H:8]"
N        1.74819151      -0.18514065      -0.19999410
C        0.52517245      -0.41634941      -0.67762971
C       -0.58931644       0.47204543      -0.76718243
C       -1.34022734       0.13921510       0.34507894
N       -0.68937780      -0.81139221       1.06114036
O       -0.00672547      -1.48394540       0.01066418
H        0.97797604      -0.41193805       1.36300888
H        2.13692645       0.64700840      -0.61842890
H       -0.57895038       1.40418641      -1.30528082
H       -2.18366900       0.64631037       0.78862360
10
Frame=16 idx=006145 GeodesicLength=1.0250763448900684 rxn_smarts="[N:1]([c:2]1[c:3]([H:9])[c:4]([H:10])[n:5][o:6]1)([H:7])[H:8]>>[N:1](=[c:2]1\[c:3]([H:9])[c:4]([H:10])[n:5]([H:7])[o:6]1)\[H:8]"
N        1.75430155      -0.18177984      -0.20927374
C        0.52678268      -0.41207622      -0.67994216
C       -0.58837695       0.47410196      -0.76315154
C       -1.35170823       0.13398299       0.34048890
N       -0.69510933      -0.80545184       1.06199928
O       -0.00626008      -1.47536797       0.01794450
H        0.98607183      -0.41934229       1.39093532
H        2.14696154       0.63849148      -0.64610764
H       -0.57143022       1.41189643      -1.29129286
H       -2.20123278       0.63554531       0.77839994
