14
Frame=0 idx=004135 GeodesicLength=0.0 rxn_smarts="[C:1]([C:2](=[O:3])[C:4]([C:5]([O:6][H:14])([H:12])[H:13])([H:10])[H:11])([H:7])([H:8])[H:9]>>[C:1]([C@:2]1([O:3][H:14])[C:4]([H:10])([H:11])[C:5]([H:12])([H:13])[O:6]1)([H:7])([H:8])[H:9]"
C        1.59987529       0.18891778      -0.76230482
C        0.52921082       0.23121081       0.27967865
O        0.69144832       1.00422870       1.32132258
C       -0.43572879      -0.96154322       0.43609339
C       -1.62214439      -0.09421782       0.02712893
O       -0.86549631       1.10932970      -0.23569463
H        2.41545028      -0.42320873      -0.36801779
H        1.24643335      -0.25572624      -1.69163513
H        1.97637169       1.19435425      -0.94093973
H       -0.23306954      -1.78648849      -0.24578780
H       -0.44367939      -1.32032706       1.46317010
H       -2.38402048       0.07507280       0.78918209
H       -2.10467413      -0.42033321      -0.89344375
H       -0.36997668       1.45873075       0.82124786
14
Frame=1 idx=004135 GeodesicLength=0.06525632735842804 rxn_smarts="[C:1]([C:2](=[O:3])[C:4]([C:5]([O:6][H:14])([H:12])[H:13])([H:10])[H:11])([H:7])([H:8])[H:9]>>[C:1]([C@:2]1([O:3][H:14])[C:4]([H:10])([H:11])[C:5]([H:12])([H:13])[O:6]1)([H:7])([H:8])[H:9]"
C        1.61155107       0.18460379      -0.75532670
C        0.52756977       0.23198232       0.27359249
O        0.68404750       1.01087199       1.31166290
C       -0.43584664      -0.96020117       0.42472480
C       -1.63031301      -0.09519922       0.03516832
O       -0.88384105       1.10931615      -0.24468327
H        2.42206357      -0.42756328      -0.35099173
H        1.26821788      -0.26174512      -1.68770567
H        1.99168843       1.18860408      -0.93513269
H       -0.23948248      -1.77670960      -0.26927535
H       -0.43253474      -1.33322596       1.44675873
H       -2.37602042       0.07113305       0.81401790
H       -2.13135862      -0.42594348      -0.87383672
H       -0.37574125       1.48407643       0.81102700
14
Frame=2 idx=004135 GeodesicLength=0.13044199415524216 rxn_smarts="[C:1]([C:2](=[O:3])[C:4]([C:5]([O:6][H:14])([H:12])[H:13])([H:10])[H:11])([H:7])([H:8])[H:9]>>[C:1]([C@:2]1([O:3][H:14])[C:4]([H:10])([H:11])[C:5]([H:12])([H:13])[O:6]1)([H:7])([H:8])[H:9]"
C        1.62324648       0.18019792      -0.74816859
C        0.52596285       0.23270745       0.26733465
O        0.67640117       1.01773362       1.30161271
C       -0.43603283      -0.95883086       0.41310933
C       -1.63841115      -0.09626121       0.04340728
O       -0.90261720       1.10923067      -0.25340552
H        2.42845974      -0.43204756      -0.33368889
H        1.29011199      -0.26785300      -1.68350864
H        2.00715587       1.18271261      -0.92905328
H       -0.24609906      -1.76653312      -0.29310970
H       -0.42131908      -1.34621110       1.42971118
H       -2.36740881       0.06713221       0.83885463
H       -2.15789347      -0.43171233      -0.85350141
H       -0.38155649       1.50973471       0.80040626
14
Frame=3 idx=004135 GeodesicLength=0.19556549976456578 rxn_smarts="[C:1]([C:2](=[O:3])[C:4]([C:5]([O:6][H:14])([H:12])[H:13])([H:10])[H:11])([H:7])([H:8])[H:9]>>[C:1]([C@:2]1([O:3][H:14])[C:4]([H:10])([H:11])[C:5]([H:12])([H:13])[O:6]1)([H:7])([H:8])[H:9]"
C        1.63495468       0.17569304      -0.74083139
C        0.52439317       0.23339150       0.26090068
O        0.66852950       1.02482505       1.29114871
C       -0.43628836      -0.95742157       0.40124747
C       -1.64642802      -0.09740717       0.05184054
O       -0.92184078       1.10908696      -0.26182196
H        2.43462610      -0.43666469      -0.31610930
H        1.31210630      -0.27406911      -1.67903612
H        2.02276868       1.17666890      -0.92270867
H       -0.25292412      -1.75593786      -0.31727940
H       -0.41004484      -1.35926436       1.41201492
H       -2.35818504       0.06304896       0.86365998
H       -2.18422834      -0.43764147      -0.83244355
H       -0.38743891       1.53569183       0.78941808
14
Frame=4 idx=004135 GeodesicLength=0.26063532378378196 rxn_smarts="[C:1]([C:2](=[O:3])[C:4]([C:5]([O:6][H:14])([H:12])[H:13])([H:10])[H:11])([H:7])([H:8])[H:9]>>[C:1]([C@:2]1([O:3][H:14])[C:4]([H:10])([H:11])[C:5]([H:12])([H:13])[O:6]1)([H:7])([H:8])[H:9]"
C        1.64667063       0.17108043      -0.73331508
C        0.52286380       0.23404141       0.25428430
O        0.66045320       1.03215974       1.28024350
C       -0.43661447      -0.95596078       0.38913867
C       -1.65435433      -0.09863971       0.06046371
O       -0.94152842       1.10889957      -0.26989322
H        2.44055049      -0.44141781      -0.29824773
H        1.33419449      -0.28041478      -1.67427936
H        2.03852414       1.17046036      -0.91610550
H       -0.25996267      -1.74490105      -0.34177451
H       -0.39872262      -1.37236669       1.39365354
H       -2.34834665       0.05885927       0.88840950
H       -2.21032091      -0.44373622      -0.81067392
H       -0.39340668       1.56193626       0.77809609
14
Frame=5 idx=004135 GeodesicLength=0.3256475577138227 rxn_smarts="[C:1]([C:2](=[O:3])[C:4]([C:5]([O:6][H:14])([H:12])[H:13])([H:10])[H:11])([H:7])([H:8])[H:9]>>[C:1]([C@:2]1([O:3][H:14])[C:4]([H:10])([H:11])[C:5]([H:12])([H:13])[O:6]1)([H:7])([H:8])[H:9]"
C        1.65838604       0.16635167      -0.72562196
C        0.52137769       0.23466361       0.24748029
O        0.65219523       1.03974995       1.26887263
C       -0.43701271      -0.95443613       0.37678524
C       -1.66217829      -0.09996242       0.06926938
O       -0.96169706       1.10868209      -0.27757423
H        2.44621915      -0.44630956      -0.28010465
H        1.35636481      -0.28691419      -1.66922963
H        2.05441441       1.16407485      -0.90925600
H       -0.26721790      -1.73339920      -0.36657908
H       -0.38736730      -1.38549688       1.37461812
H       -2.33789351       0.05453824       0.91306997
H       -2.23610913      -0.44999488      -0.78820775
H       -0.39948144       1.58845285       0.76647768
14
Frame=6 idx=004135 GeodesicLength=0.3906145664361483 rxn_smarts="[C:1]([C:2](=[O:3])[C:4]([C:5]([O:6][H:14])([H:12])[H:13])([H:10])[H:11])([H:7])([H:8])[H:9]>>[C:1]([C@:2]1([O:3][H:14])[C:4]([H:10])([H:11])[C:5]([H:12])([H:13])[O:6]1)([H:7])([H:8])[H:9]"
C        1.67009770       0.16149801      -0.71775060
C        0.51993758       0.23526771       0.24047934
O        0.64377955       1.04760702       1.25700729
C       -0.43748311      -0.95283358       0.36418409
C       -1.66989280      -0.10137906       0.07825427
O       -0.98236322       1.10844926      -0.28482816
H        2.45161967      -0.45134024      -0.26167131
H        1.37861602      -0.29359270      -1.66387622
H        2.07043972       1.15749827      -0.90216640
H       -0.27469381      -1.72140760      -0.39168404
H       -0.37598984      -1.39863540       1.35488767
H       -2.32682265       0.05006640       0.93761714
H       -2.26156174      -0.45643299      -0.76505291
H       -0.40568307       1.61523489       0.75459985
14
Frame=7 idx=004135 GeodesicLength=0.4555313800614599 rxn_smarts="[C:1]([C:2](=[O:3])[C:4]([C:5]([O:6][H:14])([H:12])[H:13])([H:10])[H:11])([H:7])([H:8])[H:9]>>[C:1]([C@:2]1([O:3][H:14])[C:4]([H:10])([H:11])[C:5]([H:12])([H:13])[O:6]1)([H:7])([H:8])[H:9]"
C        1.68179823       0.15651167      -0.70970343
C        0.51854790       0.23586045       0.23327538
O        0.63523009       1.05574415       1.24461998
C       -0.43802572      -0.95114050       0.35133637
C       -1.67748680      -0.10289565       0.08741132
O       -1.00354320       1.10821474      -0.29160860
H        2.45673953      -0.45651060      -0.24294808
H        1.40093888      -0.30047846      -1.65820909
H        2.08659275       1.15071769      -0.89485137
H       -0.28239062      -1.70890368      -0.41707371
H       -0.36461023      -1.41176009       1.33445427
H       -2.31513228       0.04542550       0.96201339
H       -2.28661976      -0.46305378      -0.74122353
H       -0.41203878       1.64226856       0.74250711
14
Frame=8 idx=004135 GeodesicLength=0.5204070679336674 rxn_smarts="[C:1]([C:2](=[O:3])[C:4]([C:5]([O:6][H:14])([H:12])[H:13])([H:10])[H:11])([H:7])([H:8])[H:9]>>[C:1]([C@:2]1([O:3][H:14])[C:4]([H:10])([H:11])[C:5]([H:12])([H:13])[O:6]1)([H:7])([H:8])[H:9]"
C        1.69348575       0.15138286      -0.70147929
C        0.51721259       0.23645080       0.22585664
O        0.62657050       1.06417400       1.23167767
C       -0.43864042      -0.94934226       0.33823681
C       -1.68495214      -0.10451648       0.09673816
O       -1.02525138       1.10799211      -0.29787861
H        2.46156617      -0.46181767      -0.22392219
H        1.42333429      -0.30760207      -1.65221615
H        2.10287454       1.14371887      -0.88731881
H       -0.29031148      -1.69585902      -0.44274213
H       -0.35324511      -1.42485282       1.31329728
H       -2.30281842       0.04059996       0.98624127
H       -2.31125197      -0.46987928      -0.71672989
H       -0.41857290       1.66955101       0.73023923
14
Frame=9 idx=004135 GeodesicLength=0.5851905977638994 rxn_smarts="[C:1]([C:2](=[O:3])[C:4]([C:5]([O:6][H:14])([H:12])[H:13])([H:10])[H:11])([H:7])([H:8])[H:9]>>[C:1]([C@:2]1([O:3][H:14])[C:4]([H:10])([H:11])[C:5]([H:12])([H:13])[O:6]1)([H:7])([H:8])[H:9]"
C        1.70516721       0.14610187      -0.69307177
C        0.51593451       0.23704448       0.21820697
O        0.61781296       1.07291415       1.21812267
C       -0.43932461      -0.94743026       0.32487349
C       -1.69228132      -0.10624352       0.10624430
O       -1.04750647       1.10776326      -0.30357312
H        2.46609610      -0.46725619      -0.20457484
H        1.44582953      -0.31500121      -1.64587780
H        2.11929057       1.13648962      -0.87957770
H       -0.29843922      -1.68223376      -0.46871737
H       -0.34192239      -1.43790073       1.29141208
H       -2.28987819       0.03558292       1.01031101
H       -2.33545495      -0.47690239      -0.69158124
H       -0.42532374       1.69707177       0.71780332
14
Frame=10 idx=004135 GeodesicLength=0.6499363493016014 rxn_smarts="[C:1]([C:2](=[O:3])[C:4]([C:5]([O:6][H:14])([H:12])[H:13])([H:10])[H:11])([H:7])([H:8])[H:9]>>[C:1]([C@:2]1([O:3][H:14])[C:4]([H:10])([H:11])[C:5]([H:12])([H:13])[O:6]1)([H:7])([H:8])[H:9]"
C        1.71683001       0.14065863      -0.68448162
C        0.51471618       0.23765735       0.21031750
O        0.60898681       1.08197501       1.20394231
C       -0.44008123      -0.94538257       0.31124680
C       -1.69946400      -0.10808475       0.11591729
O       -1.07032176       1.10756654      -0.30868088
H        2.47030448      -0.47282619      -0.18489620
H        1.46840072      -0.32270819      -1.63917980
H        2.13583633       1.12900944      -0.87163813
H       -0.30679924      -1.66800855      -0.49496313
H       -0.33063800      -1.45088231       1.26875881
H       -2.27629866       0.03034942       1.03417409
H       -2.35915962      -0.48416206      -0.66578358
H       -0.43231202       1.72483825       0.70526652
14
Frame=11 idx=004135 GeodesicLength=0.7146456703796552 rxn_smarts="[C:1]([C:2](=[O:3])[C:4]([C:5]([O:6][H:14])([H:12])[H:13])([H:10])[H:11])([H:7])([H:8])[H:9]>>[C:1]([C@:2]1([O:3][H:14])[C:4]([H:10])([H:11])[C:5]([H:12])([H:13])[O:6]1)([H:7])([H:8])[H:9]"
C        1.72847145       0.13504286      -0.67570467
C        0.51355958       0.23830060       0.20217387
O        0.60010974       1.09137185       1.18909890
C       -0.44091048      -0.94318393       0.29734756
C       -1.70649071      -0.11004389       0.12575644
O       -1.09371132       1.10740913      -0.31316928
H        2.47417714      -0.47852357      -0.16486838
H        1.49105065      -0.33076133      -1.63210297
H        2.15251317       1.12126032      -0.86351135
H       -0.31539772      -1.65315333      -0.52147510
H       -0.31940183      -1.46378126       1.24531614
H       -2.26207189       0.02487705       1.05782112
H       -2.38232736      -0.49166803      -0.63934767
H       -0.43957040       1.75285354       0.69266538
14
Frame=12 idx=004135 GeodesicLength=0.779324692555355 rxn_smarts="[C:1]([C:2](=[O:3])[C:4]([C:5]([O:6][H:14])([H:12])[H:13])([H:10])[H:11])([H:7])([H:8])[H:9]>>[C:1]([C@:2]1([O:3][H:14])[C:4]([H:10])([H:11])[C:5]([H:12])([H:13])[O:6]1)([H:7])([H:8])[H:9]"
C        1.74009155       0.12924201      -0.66673266
C        0.51246573       0.23898617       0.19375821
O        0.59119555       1.10112073       1.17354878
C       -0.44181282      -0.94081882       0.28316354
C       -1.71335320      -0.11212593       0.13576692
O       -1.11769058       1.10729400      -0.31700726
H        2.47769740      -0.48434072      -0.14446289
H        1.51378877      -0.33920343      -1.62462246
H        2.16932569       1.11322346      -0.85520180
H       -0.32424249      -1.63763359      -0.54826049
H       -0.30821583      -1.47658546       1.22104704
H       -2.24718038       0.01915305       1.08124843
H       -2.40493932      -0.49944014      -0.61227412
H       -0.44713008       1.78112868       0.68002876
14
Frame=13 idx=004135 GeodesicLength=0.8439722444880919 rxn_smarts="[C:1]([C:2](=[O:3])[C:4]([C:5]([O:6][H:14])([H:12])[H:13])([H:10])[H:11])([H:7])([H:8])[H:9]>>[C:1]([C@:2]1([O:3][H:14])[C:4]([H:10])([H:11])[C:5]([H:12])([H:13])[O:6]1)([H:7])([H:8])[H:9]"
C        1.75168668       0.12324579      -0.65756084
C        0.51143815       0.23972497       0.18505705
O        0.58225948       1.11123714       1.15725222
C       -0.44278811      -0.93827240       0.26868326
C       -1.72003851      -0.11433629       0.14595052
O       -1.14227144       1.10722280      -0.32016023
H        2.48084915      -0.49027028      -0.12365947
H        1.53661639      -0.34807781      -1.61671403
H        2.18627367       1.10488086      -0.84672121
H       -0.33334115      -1.62141388      -0.57531902
H       -0.29709490      -1.48928193       1.19592708
H       -2.23161029       0.01316190       1.10444445
H       -2.42695197      -0.50749308      -0.58456926
H       -0.45502715       1.80967222       0.66738950
14
Frame=14 idx=004135 GeodesicLength=0.9085905843310357 rxn_smarts="[C:1]([C:2](=[O:3])[C:4]([C:5]([O:6][H:14])([H:12])[H:13])([H:10])[H:11])([H:7])([H:8])[H:9]>>[C:1]([C@:2]1([O:3][H:14])[C:4]([H:10])([H:11])[C:5]([H:12])([H:13])[O:6]1)([H:7])([H:8])[H:9]"
C        1.76325747       0.11704326      -0.64817608
C        0.51047861       0.24052778       0.17604654
O        0.57331166       1.12174075       1.14015339
C       -0.44383757      -0.93552903       0.25388728
C       -1.72653641      -0.11668091       0.15631432
O       -1.16746931       1.10719233      -0.32259417
H        2.48361203      -0.49629889      -0.10242089
H        1.55954857      -0.35743361      -1.60834401
H        2.20336301       1.09621197      -0.83807221
H       -0.34270337      -1.60445433      -0.60266581
H       -0.28604902      -1.50186075       1.16990866
H       -2.21533006       0.00689744       1.12740832
H       -2.44835029      -0.51585315      -0.55621972
H       -0.46329532       1.83849715       0.65477437
14
Frame=15 idx=004135 GeodesicLength=0.9731715586108938 rxn_smarts="[C:1]([C:2](=[O:3])[C:4]([C:5]([O:6][H:14])([H:12])[H:13])([H:10])[H:11])([H:7])([H:8])[H:9]>>[C:1]([C@:2]1([O:3][H:14])[C:4]([H:10])([H:11])[C:5]([H:12])([H:13])[O:6]1)([H:7])([H:8])[H:9]"
C        1.77479975       0.11062295      -0.63856843
C        0.50959098       0.24140377       0.16670907
O        0.56436354       1.13264915       1.12220113
C       -0.44496273      -0.93257386       0.23875960
C       -1.73283176      -0.11916710       0.16686416
O       -1.19329610       1.10719873      -0.32426758
H        2.48596426      -0.50241409      -0.08071905
H        1.58258811      -0.36731912      -1.59947870
H        2.22059356       1.08719712      -0.82926292
H       -0.35233734      -1.58671290      -0.63030696
H       -0.27509375      -1.51431024       1.14295555
H       -2.19831197       0.00035363       1.15012916
H       -2.46909438      -0.52454202      -0.52722537
H       -0.47197216       1.86761398       0.64221035
14
Frame=16 idx=004135 GeodesicLength=1.0377192797160082 rxn_smarts="[C:1]([C:2](=[O:3])[C:4]([C:5]([O:6][H:14])([H:12])[H:13])([H:10])[H:11])([H:7])([H:8])[H:9]>>[C:1]([C@:2]1([O:3][H:14])[C:4]([H:10])([H:11])[C:5]([H:12])([H:13])[O:6]1)([H:7])([H:8])[H:9]"
C        1.78631097       0.10397321      -0.62872318
C        0.50877888       0.24236182       0.15702209
O        0.55542267       1.14398188       1.10333411
C       -0.44616521      -0.92939215       0.22327839
C       -1.73890800      -0.12180255       0.17760812
O       -1.21976514       1.10723268      -0.32514393
H        2.48788173      -0.50859747      -0.05851421
H        1.60574452      -0.37778880      -1.59007645
H        2.23796611       1.07781630      -0.82029778
H       -0.36225680      -1.56814155      -0.65825871
H       -0.26424575      -1.52662392       1.11501617
H       -2.18051711      -0.00646867       1.17259944
H       -2.48915309      -0.53358866      -0.49756790
H       -0.48109378       1.89703787       0.62972386
