12
Frame=0 idx=007080 GeodesicLength=0.0 rxn_smarts="[O:1]=[C:2]1[N:3]([H:8])[C:4]([H:9])([H:10])[C@@:5]2([H:11])[O:6][C@@:7]12[H:12]>>[H:8][H:12].[O:1]=[C:2]=[N:3][C:4]([C@@:5]1([H:11])[O+:6]=[C-:7]1)([H:9])[H:10]"
O        1.27014383       1.57164157       1.61453127
C        0.80349247       0.92789978       0.73415491
N        1.25297968       0.21671193      -0.32804521
C        0.52112895      -1.08271620      -0.27281807
C       -0.92253096      -0.63414804      -0.06877707
O       -1.42051387      -0.16869454       1.25040691
C       -0.77112607       0.68788906       0.47880917
H        0.14214359       1.17205694      -1.11175020
H        0.92475168      -1.73815514       0.50312644
H        0.60763692      -1.58758088      -1.23340285
H       -1.72749813      -0.89110830      -0.74412119
H       -0.68060809       1.52620381      -0.82211411
12
Frame=1 idx=007080 GeodesicLength=0.11153923245481451 rxn_smarts="[O:1]=[C:2]1[N:3]([H:8])[C:4]([H:9])([H:10])[C@@:5]2([H:11])[O:6][C@@:7]12[H:12]>>[H:8][H:12].[O:1]=[C:2]=[N:3][C:4]([C@@:5]1([H:11])[O+:6]=[C-:7]1)([H:9])[H:10]"
O        1.28202791       1.58097940       1.61725274
C        0.81103568       0.92882168       0.74542322
N        1.24961542       0.21726984      -0.31592125
C        0.51806366      -1.08039004      -0.27346214
C       -0.92620636      -0.63869375      -0.06483316
O       -1.41838185      -0.17764654       1.25362801
C       -0.78935954       0.69115058       0.47595890
H        0.16627587       1.17836258      -1.12420638
H        0.91855327      -1.74547605       0.49571246
H        0.60423767      -1.57568468      -1.23933828
H       -1.73153619      -0.91062118      -0.73393341
H       -0.68432554       1.53192815      -0.83628069
12
Frame=2 idx=007080 GeodesicLength=0.22268056880539927 rxn_smarts="[O:1]=[C:2]1[N:3]([H:8])[C:4]([H:9])([H:10])[C@@:5]2([H:11])[O:6][C@@:7]12[H:12]>>[H:8][H:12].[O:1]=[C:2]=[N:3][C:4]([C@@:5]1([H:11])[O+:6]=[C-:7]1)([H:9])[H:10]"
O        1.29419846       1.59026934       1.61996840
C        0.81874444       0.92957293       0.75703512
N        1.24592552       0.21796592      -0.30377862
C        0.51490717      -1.07794455      -0.27412761
C       -0.92999822      -0.64338593      -0.06080067
O       -1.41632869      -0.18629352       1.25678899
C       -0.80811238       0.69421780       0.47286883
H        0.19127089       1.18473198      -1.13664470
H        0.91243819      -1.75266760       0.48800330
H        0.60069997      -1.56349415      -1.24526832
H       -1.73547815      -0.93060017      -0.72338881
H       -0.68826721       1.53762795      -0.85065590
12
Frame=3 idx=007080 GeodesicLength=0.33354358055913247 rxn_smarts="[O:1]=[C:2]1[N:3]([H:8])[C:4]([H:9])([H:10])[C@@:5]2([H:11])[O:6][C@@:7]12[H:12]>>[H:8][H:12].[O:1]=[C:2]=[N:3][C:4]([C@@:5]1([H:11])[O+:6]=[C-:7]1)([H:9])[H:10]"
O        1.30666897       1.59950563       1.62266862
C        0.82663023       0.93014604       0.76899798
N        1.24189409       0.21881023      -0.29161731
C        0.51165357      -1.07537089      -0.27481528
C       -0.93391079      -0.64822723      -0.05667937
O       -1.41436026      -0.19463889       1.25989267
C       -0.82740966       0.69707477       0.46953102
H        0.21721600       1.19114067      -1.14908512
H        0.90640918      -1.75971499       0.47999321
H        0.59701414      -1.55099997      -1.25118625
H       -1.73931300      -0.95105035      -0.71247591
H       -0.69249247       1.54332498      -0.86522424
12
Frame=4 idx=007080 GeodesicLength=0.4442576264251299 rxn_smarts="[O:1]=[C:2]1[N:3]([H:8])[C:4]([H:9])([H:10])[C@@:5]2([H:11])[O:6][C@@:7]12[H:12]>>[H:8][H:12].[O:1]=[C:2]=[N:3][C:4]([C@@:5]1([H:11])[O+:6]=[C-:7]1)([H:9])[H:10]"
O        1.31945423       1.60868104       1.62534017
C        0.83470650       0.93053340       0.78132032
N        1.23750325       0.21981558      -0.27943742
C        0.50829653      -1.07265889      -0.27552539
C       -0.93794883      -0.65321987      -0.05247036
O       -1.41248269      -0.20268527       1.26294025
C       -0.84728028       0.69970238       0.46593929
H        0.24421533       1.19755396      -1.16155109
H        0.90046846      -1.76660168       0.47167776
H        0.59317074      -1.53819224      -1.25708598
H       -1.74302724      -0.97197660      -0.70118358
H       -0.69707600       1.54904818      -0.87996396
12
Frame=5 idx=007080 GeodesicLength=0.5549344768785178 rxn_smarts="[O:1]=[C:2]1[N:3]([H:8])[C:4]([H:9])([H:10])[C@@:5]2([H:11])[O:6][C@@:7]12[H:12]>>[H:8][H:12].[O:1]=[C:2]=[N:3][C:4]([C@@:5]1([H:11])[O+:6]=[C-:7]1)([H:9])[H:10]"
O        1.33256719       1.61779220       1.62796966
C        0.84298776       0.93072979       0.79400499
N        1.23273903       0.22099033      -0.26723634
C        0.50483015      -1.06980039      -0.27625777
C       -0.94211596      -0.65836320      -0.04817815
O       -1.41069970      -0.21043860       1.26593207
C       -0.86774946       0.70208290       0.46208574
H        0.27238428       1.20392902      -1.17406606
H        0.89461655      -1.77331308       0.46305459
H        0.58916225      -1.52506589      -1.26296078
H       -1.74660753      -0.99338030      -0.68950406
H       -0.70211455       1.55483724      -0.89484389
12
Frame=6 idx=007080 GeodesicLength=0.6656981550846162 rxn_smarts="[O:1]=[C:2]1[N:3]([H:8])[C:4]([H:9])([H:10])[C@@:5]2([H:11])[O:6][C@@:7]12[H:12]>>[H:8][H:12].[O:1]=[C:2]=[N:3][C:4]([C@@:5]1([H:11])[O+:6]=[C-:7]1)([H:9])[H:10]"
O        1.34602117       1.62682807       1.63054336
C        0.85148884       0.93072747       0.80706148
N        1.22757624       0.22235515      -0.25501778
C        0.50124618      -1.06678090      -0.27701402
C       -0.94641853      -0.66366096      -0.04380148
O       -1.40901775      -0.21790147       1.26887049
C       -0.88885211       0.70419254       0.45796676
H        0.30187673       1.21021120      -1.18665561
H        0.88885868      -1.77982660       0.45411701
H        0.58497437      -1.51160603      -1.26880623
H       -1.75003891      -1.01526692      -0.67742261
H       -0.70771491       1.56072844      -0.90984137
12
Frame=7 idx=007080 GeodesicLength=0.7766252234241309 rxn_smarts="[O:1]=[C:2]1[N:3]([H:8])[C:4]([H:9])([H:10])[C@@:5]2([H:11])[O:6][C@@:7]12[H:12]>>[H:8][H:12].[O:1]=[C:2]=[N:3][C:4]([C@@:5]1([H:11])[O+:6]=[C-:7]1)([H:9])[H:10]"
O        1.35982551       1.63578728       1.63304825
C        0.86022794       0.93052197       0.82049083
N        1.22199809       0.22392418      -0.24278113
C        0.49753680      -1.06358908      -0.27779509
C       -0.95086154      -0.66911172      -0.03934489
O       -1.40743762      -0.22508352       1.27175841
C       -0.91062002       0.70600936       0.45357802
H        0.33285094       1.21633860      -1.19934366
H        0.88319579      -1.78612377       0.44486117
H        0.58059516      -1.49780507      -1.27461741
H       -1.75330788      -1.03763582      -0.66493131
H       -0.71400317       1.56676760      -0.92492318
12
Frame=8 idx=007080 GeodesicLength=0.8878167521961545 rxn_smarts="[O:1]=[C:2]1[N:3]([H:8])[C:4]([H:9])([H:10])[C@@:5]2([H:11])[O:6][C@@:7]12[H:12]>>[H:8][H:12].[O:1]=[C:2]=[N:3][C:4]([C@@:5]1([H:11])[O+:6]=[C-:7]1)([H:9])[H:10]"
O        1.37399229       1.64465968       1.63547162
C        0.86922377       0.93010882       0.83429814
N        1.21597701       0.22572052      -0.23052883
C        0.49369155      -1.06020780      -0.27860372
C       -0.95545278      -0.67471620      -0.03480994
O       -1.40596267      -0.23198913       1.27459832
C       -0.93309379       0.70750595       0.44891251
H        0.36551610       1.22223139      -1.21215084
H        0.87763364      -1.79217920       0.43527778
H        0.57600779      -1.48364643      -1.28039320
H       -1.75639758      -1.06049365      -0.65201009
H       -0.72113532       1.57300604      -0.94006175
12
Frame=9 idx=007080 GeodesicLength=1.0000616927051655 rxn_smarts="[O:1]=[C:2]1[N:3]([H:8])[C:4]([H:9])([H:10])[C@@:5]2([H:11])[O:6][C@@:7]12[H:12]>>[H:8][H:12].[O:1]=[C:2]=[N:3][C:4]([C@@:5]1([H:11])[O+:6]=[C-:7]1)([H:9])[H:10]"
O        1.38852695       1.65348765       1.63777924
C        0.87854823       0.92951779       0.84843973
N        1.20955331       0.22770995      -0.21818446
C        0.48969811      -1.05664136      -0.27942654
C       -0.96018700      -0.68045771      -0.03024314
O       -1.40456955      -0.23865267       1.27736624
C       -0.95630892       0.70864104       0.44395985
H        0.40032940       1.22768744      -1.22522097
H        0.87212389      -1.79799892       0.42538618
H        0.57121141      -1.46914704      -1.28611969
H       -1.75927257      -1.08382651      -0.63869160
H       -0.72965326       1.57968035      -0.95504484
12
Frame=10 idx=007080 GeodesicLength=1.1125485297520044 rxn_smarts="[O:1]=[C:2]1[N:3]([H:8])[C:4]([H:9])([H:10])[C@@:5]2([H:11])[O:6][C@@:7]12[H:12]>>[H:8][H:12].[O:1]=[C:2]=[N:3][C:4]([C@@:5]1([H:11])[O+:6]=[C-:7]1)([H:9])[H:10]"
O        1.40343451       1.66222157       1.63997886
C        0.88817412       0.92870751       0.86296626
N        1.20261905       0.22998697      -0.20582751
C        0.48554541      -1.05284088      -0.28028994
C       -0.96508585      -0.68635205      -0.02559752
O       -1.40328638      -0.24505092       1.28009516
C       -0.98031886       0.70939609       0.43873744
H        0.43734113       1.23269351      -1.23845897
H        0.86672639      -1.80351735       0.41513495
H        0.56616756      -1.45424284      -1.29181606
H       -1.76193627      -1.10765511      -0.62490576
H       -0.73938082       1.58665349      -0.97001691
12
Frame=11 idx=007080 GeodesicLength=1.225161054293082 rxn_smarts="[O:1]=[C:2]1[N:3]([H:8])[C:4]([H:9])([H:10])[C@@:5]2([H:11])[O:6][C@@:7]12[H:12]>>[H:8][H:12].[O:1]=[C:2]=[N:3][C:4]([C@@:5]1([H:11])[O+:6]=[C-:7]1)([H:9])[H:10]"
O        1.41871804       1.67084843       1.64206403
C        0.89812157       0.92767457       0.87787596
N        1.19513298       0.23259093      -0.19345634
C        0.48122058      -1.04877710      -0.28120323
C       -0.97015837      -0.69240191      -0.02086576
O       -1.40211634      -0.25118726       1.28279372
C       -1.00517758       0.70974075       0.43325197
H        0.47680190       1.23714075      -1.25189109
H        0.86144945      -1.80869983       0.40450131
H        0.56085307      -1.43889823      -1.29748953
H       -1.76437223      -1.13198982      -0.61062607
H       -0.75047307       1.59395873      -0.98495497
12
Frame=12 idx=007080 GeodesicLength=1.337867775567572 rxn_smarts="[O:1]=[C:2]1[N:3]([H:8])[C:4]([H:9])([H:10])[C@@:5]2([H:11])[O:6][C@@:7]12[H:12]>>[H:8][H:12].[O:1]=[C:2]=[N:3][C:4]([C@@:5]1([H:11])[O+:6]=[C-:7]1)([H:9])[H:10]"
O        1.43437054       1.67936151       1.64402553
C        0.90841959       0.92641357       0.89316778
N        1.18704860       0.23556730      -0.18107125
C        0.47670505      -1.04441511      -0.28217814
C       -0.97541532      -0.69860653      -0.01604259
O       -1.40106058      -0.25706730       1.28547079
C       -1.03094527       0.70963795       0.42751502
H        0.51905851       1.24087882      -1.26554740
H        0.85630314      -1.81350338       0.39345520
H        0.55523620      -1.42307070      -1.30315244
H       -1.76655971      -1.15684073      -0.59582021
H       -0.76316075       1.60164460      -0.99982228
12
Frame=13 idx=007080 GeodesicLength=1.4505050796985954 rxn_smarts="[O:1]=[C:2]1[N:3]([H:8])[C:4]([H:9])([H:10])[C@@:5]2([H:11])[O:6][C@@:7]12[H:12]>>[H:8][H:12].[O:1]=[C:2]=[N:3][C:4]([C@@:5]1([H:11])[O+:6]=[C-:7]1)([H:9])[H:10]"
O        1.45038385       1.68775390       1.64585923
C        0.91909150       0.92492120       0.90883354
N        1.17830741       0.23897511      -0.16868107
C        0.47198049      -1.03971458      -0.28323286
C       -0.98086898      -0.70496886      -0.01111631
O       -1.40011914      -0.26269832       1.28814185
C       -1.05768997       0.70904835       0.42153735
H        0.56445492       1.24374987      -1.27943417
H        0.85130381      -1.81787819       0.38195977
H        0.54927897      -1.40671254      -1.30882122
H       -1.76848248      -1.18222056      -0.58045080
H       -0.77764038       1.60974463      -1.01459531
12
Frame=14 idx=007080 GeodesicLength=1.5630208882252545 rxn_smarts="[O:1]=[C:2]1[N:3]([H:8])[C:4]([H:9])([H:10])[C@@:5]2([H:11])[O:6][C@@:7]12[H:12]>>[H:8][H:12].[O:1]=[C:2]=[N:3][C:4]([C@@:5]1([H:11])[O+:6]=[C-:7]1)([H:9])[H:10]"
O        1.46673937       1.69602247       1.64755536
C        0.93016764       0.92319539       0.92486387
N        1.16883848       0.24288864      -0.15629919
C        0.46702210      -1.03462213      -0.28439037
C       -0.98653481      -0.71148849      -0.00607696
O       -1.39929068      -0.26808979       1.29082311
C       -1.08549373       0.70792226       0.41534283
H        0.61347237       1.24552235      -1.29356073
H        0.84646980      -1.82176012       0.36996512
H        0.54293101      -1.38975689      -1.31452014
H       -1.77011515      -1.20814422      -0.56447218
H       -0.79420639       1.61831053      -1.02923073
12
Frame=15 idx=007080 GeodesicLength=1.6752597059233767 rxn_smarts="[O:1]=[C:2]1[N:3]([H:8])[C:4]([H:9])([H:10])[C@@:5]2([H:11])[O:6][C@@:7]12[H:12]>>[H:8][H:12].[O:1]=[C:2]=[N:3][C:4]([C@@:5]1([H:11])[O+:6]=[C-:7]1)([H:9])[H:10]"
O        1.48341397       1.70416463       1.64911142
C        0.94167789       0.92123202       0.94124064
N        1.15855141       0.24740329      -0.14395405
C        0.46180205      -1.02907332      -0.28568164
C       -0.99243012      -0.71816855      -0.00090790
O       -1.39857301      -0.27325172       1.29353632
C       -1.11444857       0.70620688       0.40895783
H        0.66661481       1.24593896      -1.30790704
H        0.84182997      -1.82506959       0.35741065
H        0.53612961      -1.37212950      -1.32028009
H       -1.77143283      -1.23463086      -0.54783169
H       -0.81313519       1.62737777      -1.04369446
12
Frame=16 idx=007080 GeodesicLength=1.7870728041988129 rxn_smarts="[O:1]=[C:2]1[N:3]([H:8])[C:4]([H:9])([H:10])[C@@:5]2([H:11])[O:6][C@@:7]12[H:12]>>[H:8][H:12].[O:1]=[C:2]=[N:3][C:4]([C@@:5]1([H:11])[O+:6]=[C-:7]1)([H:9])[H:10]"
O        1.50037722       1.71217718       1.65052473
C        0.95365838       0.91902786       0.95793849
N        1.14733399       0.25264336      -0.13168523
C        0.45628847      -1.02298757      -0.28714698
C       -0.99857404      -0.72501151       0.00441059
O       -1.39796328      -0.27819276       1.29630753
C       -1.14466307       0.70383970       0.40241229
H        0.72446698       1.24466285      -1.32242409
H        0.83742261      -1.82770758       0.34421846
H        0.52880088      -1.35373680      -1.32614305
H       -1.77240435      -1.26170635      -0.53046574
H       -0.83474380       1.63699162      -1.05794701
