16
Frame=0 idx=011356 GeodesicLength=0.0 rxn_smarts="[C:1]([c:2]1[c:3]([C:4]([H:11])([H:12])[H:13])[c:5]([H:14])[c:6]([H:15])[n:7]1[H:16])([H:8])([H:9])[H:10]>>[C:1]([C@@:2]1([H:16])[C:3]([C:4]([H:11])([H:12])[H:13])=[C:5]([H:14])[C:6]([H:15])=[N:7]1)([H:8])([H:9])[H:10]"
C       -1.28548364       1.49306062      -0.31694790
C       -0.02404841       0.72418688      -0.08191626
C        0.13424876      -0.65221482       0.14625482
C       -0.95089511      -1.59949144       0.54812292
C        1.46985032      -0.93999063      -0.11217250
C        2.10215809       0.24519647      -0.46807867
N        1.24467701       1.28158216      -0.50788750
H       -1.68564841       1.27473070      -1.31003958
H       -1.10004017       2.56555044      -0.26137560
H       -2.04741857       1.23333711       0.41921857
H       -0.54475110      -2.58149633       0.79032409
H       -1.68171933      -1.73100289      -0.25436350
H       -1.49331357      -1.23715698       1.42389898
H        1.94108395      -1.90851729      -0.01465589
H        3.15429390       0.41135528      -0.65020426
H        0.76700626       1.42087077       0.64982229
16
Frame=1 idx=011356 GeodesicLength=0.04709208472142987 rxn_smarts="[C:1]([c:2]1[c:3]([C:4]([H:11])([H:12])[H:13])[c:5]([H:14])[c:6]([H:15])[n:7]1[H:16])([H:8])([H:9])[H:10]>>[C:1]([C@@:2]1([H:16])[C:3]([C:4]([H:11])([H:12])[H:13])=[C:5]([H:14])[C:6]([H:15])=[N:7]1)([H:8])([H:9])[H:10]"
C       -1.28408574       1.49095067      -0.32529243
C       -0.02286739       0.72692235      -0.07278199
C        0.13361966      -0.65327613       0.14475572
C       -0.95015436      -1.60076241       0.54884446
C        1.46794607      -0.94168203      -0.11673535
C        2.10252080       0.24690929      -0.46286751
N        1.24549238       1.28182270      -0.49309758
H       -1.68994022       1.24339439      -1.30897910
H       -1.10050385       2.56504579      -0.30397604
H       -2.04150229       1.25467197       0.42354113
H       -0.55137419      -2.59522124       0.74917928
H       -1.70517432      -1.70160479      -0.23533987
H       -1.46275609      -1.25921524       1.45060367
H        1.93923295      -1.91087247      -0.02694309
H        3.15580623       0.41472232      -0.63722117
H        0.76374034       1.43819482       0.66630988
16
Frame=2 idx=011356 GeodesicLength=0.09426862616598924 rxn_smarts="[C:1]([c:2]1[c:3]([C:4]([H:11])([H:12])[H:13])[c:5]([H:14])[c:6]([H:15])[n:7]1[H:16])([H:8])([H:9])[H:10]>>[C:1]([C@@:2]1([H:16])[C:3]([C:4]([H:11])([H:12])[H:13])=[C:5]([H:14])[C:6]([H:15])=[N:7]1)([H:8])([H:9])[H:10]"
C       -1.28259384       1.48880731      -0.33375207
C       -0.02184195       0.72960771      -0.06362060
C        0.13288975      -0.65432450       0.14316421
C       -0.94936386      -1.60212313       0.54968476
C        1.46588574      -0.94335921      -0.12174874
C        2.10278934       0.24863676      -0.45769569
N        1.24621948       1.28201759      -0.47811885
H       -1.69402677       1.21266035      -1.30727975
H       -1.10057985       2.56336506      -0.34655160
H       -2.03567341       1.27652487       0.42678401
H       -0.55907889      -2.60764157       0.70745104
H       -1.72814656      -1.67231711      -0.21422654
H       -1.43114187      -1.28274975       1.47629487
H        1.93728833      -1.91307822      -0.03917005
H        3.15725478       0.41805536      -0.62384062
H        0.76011958       1.45591847       0.68262562
16
Frame=3 idx=011356 GeodesicLength=0.1413851463086513 rxn_smarts="[C:1]([c:2]1[c:3]([C:4]([H:11])([H:12])[H:13])[c:5]([H:14])[c:6]([H:15])[n:7]1[H:16])([H:8])([H:9])[H:10]>>[C:1]([C@@:2]1([H:16])[C:3]([C:4]([H:11])([H:12])[H:13])=[C:5]([H:14])[C:6]([H:15])=[N:7]1)([H:8])([H:9])[H:10]"
C       -1.28096183       1.48662878      -0.34235730
C       -0.02098807       0.73222544      -0.05450389
C        0.13202759      -0.65538689       0.14135872
C       -0.94846835      -1.60356751       0.55067875
C        1.46356612      -0.94504736      -0.12738267
C        2.10286164       0.25037065      -0.45258390
N        1.24679918       1.28216006      -0.46294544
H       -1.69786298       1.18264556      -1.30498725
H       -1.10020877       2.56052537      -0.38898618
H       -2.02986194       1.29879200       0.42884894
H       -0.56787967      -2.61869581       0.66522867
H       -1.75055338      -1.64318977      -0.19082503
H       -1.39829439      -1.30769595       1.50088258
H        1.93521742      -1.91512451      -0.05136256
H        3.15853451       0.42136940      -0.60976058
H        0.75607292       1.47399053       0.69869713
16
Frame=4 idx=011356 GeodesicLength=0.18849802748686767 rxn_smarts="[C:1]([c:2]1[c:3]([C:4]([H:11])([H:12])[H:13])[c:5]([H:14])[c:6]([H:15])[n:7]1[H:16])([H:8])([H:9])[H:10]>>[C:1]([C@@:2]1([H:16])[C:3]([C:4]([H:11])([H:12])[H:13])=[C:5]([H:14])[C:6]([H:15])=[N:7]1)([H:8])([H:9])[H:10]"
C       -1.27922390       1.48441765      -0.35093038
C       -0.02027088       0.73480590      -0.04526462
C        0.13110578      -0.65640318       0.13965371
C       -0.94756432      -1.60512836       0.55161836
C        1.46110288      -0.94669640      -0.13337058
C        2.10279741       0.25208382      -0.44766648
N        1.24726915       1.28222216      -0.44765867
H       -1.70153544       1.15330246      -1.30198101
H       -1.09941825       2.55655371      -0.43111516
H       -2.02412109       1.32147055       0.42995900
H       -0.57789142      -2.62833674       0.62250197
H       -1.77214112      -1.61427798      -0.16567328
H       -1.36474702      -1.33419551       1.52394280
H        1.93325452      -1.91686480      -0.06248059
H        3.15961484       0.42449640      -0.59604535
H        0.75176887       1.49255034       0.71451028
16
Frame=5 idx=011356 GeodesicLength=0.23551204979494664 rxn_smarts="[C:1]([c:2]1[c:3]([C:4]([H:11])([H:12])[H:13])[c:5]([H:14])[c:6]([H:15])[n:7]1[H:16])([H:8])([H:9])[H:10]>>[C:1]([C@@:2]1([H:16])[C:3]([C:4]([H:11])([H:12])[H:13])=[C:5]([H:14])[C:6]([H:15])=[N:7]1)([H:8])([H:9])[H:10]"
C       -1.27737308       1.48218589      -0.35934200
C       -0.01967503       0.73734490      -0.03589933
C        0.13013876      -0.65737923       0.13806896
C       -0.94667952      -1.60682323       0.55235777
C        1.45848794      -0.94832649      -0.13972074
C        2.10253435       0.25372462      -0.44316488
N        1.24760283       1.28216862      -0.43237622
H       -1.70508706       1.12477093      -1.29818326
H       -1.09821426       2.55150828      -0.47260327
H       -2.01840624       1.34444388       0.43023540
H       -0.58910422      -2.63650654       0.57936183
H       -1.79272629      -1.58571403      -0.13907746
H       -1.33080191      -1.36219216       1.54512085
H        1.93159963      -1.91817399      -0.07157513
H        3.16039865       0.42735764      -0.58315092
H        0.74730546       1.51161091       0.72994841
16
Frame=6 idx=011356 GeodesicLength=0.28247656484995537 rxn_smarts="[C:1]([c:2]1[c:3]([C:4]([H:11])([H:12])[H:13])[c:5]([H:14])[c:6]([H:15])[n:7]1[H:16])([H:8])([H:9])[H:10]>>[C:1]([C@@:2]1([H:16])[C:3]([C:4]([H:11])([H:12])[H:13])=[C:5]([H:14])[C:6]([H:15])=[N:7]1)([H:8])([H:9])[H:10]"
C       -1.27537804       1.47978853      -0.36791758
C       -0.01918745       0.73989119      -0.02626235
C        0.12921051      -0.65822078       0.13708152
C       -0.94573304      -1.60855281       0.55338279
C        1.45580631      -0.94980675      -0.14590617
C        2.10221106       0.25543969      -0.43837462
N        1.24786579       1.28207425      -0.41676256
H       -1.70831330       1.09654512      -1.29389336
H       -1.09659684       2.54523724      -0.51413915
H       -2.01280218       1.36775681       0.42927743
H       -0.60144365      -2.64306314       0.53639224
H       -1.81217034      -1.55750257      -0.11055095
H       -1.29642393      -1.39152315       1.56481660
H        1.92940948      -1.91967961      -0.08242236
H        3.16109188       0.43016331      -0.56986502
H        0.74245376       1.53145267       0.74514354
16
Frame=7 idx=011356 GeodesicLength=0.32932511737582726 rxn_smarts="[C:1]([c:2]1[c:3]([C:4]([H:11])([H:12])[H:13])[c:5]([H:14])[c:6]([H:15])[n:7]1[H:16])([H:8])([H:9])[H:10]>>[C:1]([C@@:2]1([H:16])[C:3]([C:4]([H:11])([H:12])[H:13])=[C:5]([H:14])[C:6]([H:15])=[N:7]1)([H:8])([H:9])[H:10]"
C       -1.27324801       1.47728179      -0.37637917
C       -0.01879065       0.74243295      -0.01636148
C        0.12833344      -0.65895973       0.13662878
C       -0.94479083      -1.61036639       0.55433256
C        1.45302375      -0.95120572      -0.15211207
C        2.10171829       0.25712280      -0.43379001
N        1.24800744       1.28187866      -0.40105506
H       -1.71138043       1.06883870      -1.28883585
H       -1.09456976       2.53782166      -0.55526865
H       -2.00719922       1.39134340       0.42743118
H       -0.61493328      -2.64802288       0.49335864
H       -1.83033909      -1.52968966      -0.08067062
H       -1.26197959      -1.42225979       1.58253404
H        1.92720910      -1.92099570      -0.09256281
H        3.16152890       0.43275713      -0.55716231
H        0.73740995       1.55202277       0.75991283
16
Frame=8 idx=011356 GeodesicLength=0.3761366909411109 rxn_smarts="[C:1]([c:2]1[c:3]([C:4]([H:11])([H:12])[H:13])[c:5]([H:14])[c:6]([H:15])[n:7]1[H:16])([H:8])([H:9])[H:10]>>[C:1]([C@@:2]1([H:16])[C:3]([C:4]([H:11])([H:12])[H:13])=[C:5]([H:14])[C:6]([H:15])=[N:7]1)([H:8])([H:9])[H:10]"
C       -1.27092709       1.47453264      -0.38499329
C       -0.01848046       0.74501066      -0.00609141
C        0.12754711      -0.65953008       0.13705795
C       -0.94380697      -1.61220552       0.55558266
C        1.45014790      -0.95242143      -0.15806341
C        2.10114805       0.25890815      -0.42886961
N        1.24807981       1.28165841      -0.38498194
H       -1.71414134       1.04120162      -1.28318407
H       -1.09205527       2.52907154      -0.59661613
H       -2.00160518       1.41529139       0.42437350
H       -0.62958570      -2.65128158       0.45055983
H       -1.84721215      -1.50220831      -0.04891516
H       -1.22733984      -1.45439650       1.59862287
H        1.92438369      -1.92250209      -0.10482346
H        3.16186346       0.43532602      -0.54398737
H        0.73198397       1.57354509       0.77432903
16
Frame=9 idx=011356 GeodesicLength=0.42288596687345814 rxn_smarts="[C:1]([c:2]1[c:3]([C:4]([H:11])([H:12])[H:13])[c:5]([H:14])[c:6]([H:15])[n:7]1[H:16])([H:8])([H:9])[H:10]>>[C:1]([C@@:2]1([H:16])[C:3]([C:4]([H:11])([H:12])[H:13])=[C:5]([H:14])[C:6]([H:15])=[N:7]1)([H:8])([H:9])[H:10]"
C       -1.26847320       1.47156737      -0.39362761
C       -0.01825412       0.74759829       0.00446680
C        0.12686346      -0.65998332       0.13814765
C       -0.94281808      -1.61406686       0.55694693
C        1.44719905      -0.95352021      -0.16405473
C        2.10049824       0.26071686      -0.42392349
N        1.24808503       1.28136410      -0.36866745
H       -1.71677060       1.01382038      -1.27684867
H       -1.08910878       2.51902431      -0.63785269
H       -1.99601744       1.43949891       0.42027548
H       -0.64542927      -2.65279785       0.40780939
H       -1.86285512      -1.47507058      -0.01546801
H       -1.19254957      -1.48786955       1.61289313
H        1.92127288      -1.92397975      -0.11774447
H        3.16209370       0.43777406      -0.53063534
H        0.72626384       1.59592383       0.78828307
16
Frame=10 idx=011356 GeodesicLength=0.46958985957692306 rxn_smarts="[C:1]([c:2]1[c:3]([C:4]([H:11])([H:12])[H:13])[c:5]([H:14])[c:6]([H:15])[n:7]1[H:16])([H:8])([H:9])[H:10]>>[C:1]([C@@:2]1([H:16])[C:3]([C:4]([H:11])([H:12])[H:13])=[C:5]([H:14])[C:6]([H:15])=[N:7]1)([H:8])([H:9])[H:10]"
C       -1.26585892       1.46835215      -0.40225834
C       -0.01809931       0.75021039       0.01535379
C        0.12630730      -0.66030972       0.14001919
C       -0.94183376      -1.61595102       0.55839781
C        1.44414831      -0.95448845      -0.17006356
C        2.09973961       0.26256074      -0.41896831
N        1.24801498       1.28100517      -0.35211249
H       -1.71928490       0.98659420      -1.26973373
H       -1.08569732       2.50761528      -0.67904165
H       -1.99035777       1.46397911       0.41516184
H       -0.66250758      -2.65250739       0.36506873
H       -1.87718382      -1.44825344       0.01965301
H       -1.15770014      -1.52276185       1.62522524
H        1.91786766      -1.92539177      -0.13127208
H        3.16218458       0.44010595      -0.51711683
H        0.72026109       1.61924064       0.80168739
16
Frame=11 idx=011356 GeodesicLength=0.5162871938400958 rxn_smarts="[C:1]([c:2]1[c:3]([C:4]([H:11])([H:12])[H:13])[c:5]([H:14])[c:6]([H:15])[n:7]1[H:16])([H:8])([H:9])[H:10]>>[C:1]([C@@:2]1([H:16])[C:3]([C:4]([H:11])([H:12])[H:13])=[C:5]([H:14])[C:6]([H:15])=[N:7]1)([H:8])([H:9])[H:10]"
C       -1.26307562       1.46483706      -0.41085597
C       -0.01799380       0.75286558       0.02664341
C        0.12592284      -0.66049185       0.14285241
C       -0.94089638      -1.61785189       0.55992186
C        1.44103094      -0.95529610      -0.17594612
C        2.09890213       0.26445968      -0.41399257
N        1.24790258       1.28059640      -0.33528947
H       -1.72168316       0.95942833      -1.26178476
H       -1.08181196       2.49475991      -0.72020245
H       -1.98461832       1.48869541       0.40904014
H       -0.68084869      -2.65032273       0.32236878
H       -1.89012626      -1.42178281       0.05634354
H       -1.12304068      -1.55910219       1.63550953
H        1.91416659      -1.92672087      -0.14548332
H        3.16216234       0.44232750      -0.50361485
H        0.71400742       1.64359858       0.81448984
16
Frame=12 idx=011356 GeodesicLength=0.5629909339071701 rxn_smarts="[C:1]([c:2]1[c:3]([C:4]([H:11])([H:12])[H:13])[c:5]([H:14])[c:6]([H:15])[n:7]1[H:16])([H:8])([H:9])[H:10]>>[C:1]([C@@:2]1([H:16])[C:3]([C:4]([H:11])([H:12])[H:13])=[C:5]([H:14])[C:6]([H:15])=[N:7]1)([H:8])([H:9])[H:10]"
C       -1.26011510       1.46099181      -0.41933397
C       -0.01791603       0.75557537       0.03838481
C        0.12574905      -0.66052970       0.14675009
C       -0.94004477      -1.61975714       0.56143124
C        1.43787093      -0.95594165      -0.18158899
C        2.09797113       0.26640437      -0.40908447
N        1.24775740       1.28013812      -0.31819959
H       -1.72397476       0.93229822      -1.25289530
H       -1.07745431       2.48041061      -0.76120207
H       -1.97877125       1.51357228       0.40196720
H       -0.70043601      -2.64616859       0.27975761
H       -1.90158215      -1.39573670       0.09434497
H       -1.08885526      -1.59682877       1.64354156
H        1.91025135      -1.92791621      -0.15999586
H        3.16199694       0.44441951      -0.49047964
H        0.70755285       1.66906844       0.82660242
16
Frame=13 idx=011356 GeodesicLength=0.6096578691734752 rxn_smarts="[C:1]([c:2]1[c:3]([C:4]([H:11])([H:12])[H:13])[c:5]([H:14])[c:6]([H:15])[n:7]1[H:16])([H:8])([H:9])[H:10]>>[C:1]([C@@:2]1([H:16])[C:3]([C:4]([H:11])([H:12])[H:13])=[C:5]([H:14])[C:6]([H:15])=[N:7]1)([H:8])([H:9])[H:10]"
C       -1.25694910       1.45678152      -0.42763112
C       -0.01784654       0.75834234       0.05062774
C        0.12582313      -0.66042080       0.15182763
C       -0.93929471      -1.62165322       0.56285897
C        1.43467385      -0.95641015      -0.18684019
C        2.09690130       0.26839589      -0.40430499
N        1.24757054       1.27962624      -0.30082805
H       -1.72612411       0.90520872      -1.24298085
H       -1.07262156       2.46450728      -0.80195959
H       -1.97275789       1.53852859       0.39396769
H       -0.72121429      -2.63992608       0.23723146
H       -1.91146310      -1.37014768       0.13348561
H       -1.05538825      -1.63595410       1.64915548
H        1.90615179      -1.92892925      -0.17450574
H        3.16161949       0.44638021      -0.47803314
H        0.70091943       1.69567049       0.83792910
16
Frame=14 idx=011356 GeodesicLength=0.6563925216723994 rxn_smarts="[C:1]([c:2]1[c:3]([C:4]([H:11])([H:12])[H:13])[c:5]([H:14])[c:6]([H:15])[n:7]1[H:16])([H:8])([H:9])[H:10]>>[C:1]([C@@:2]1([H:16])[C:3]([C:4]([H:11])([H:12])[H:13])=[C:5]([H:14])[C:6]([H:15])=[N:7]1)([H:8])([H:9])[H:10]"
C       -1.25351937       1.45210595      -0.43582141
C       -0.01776785       0.76120485       0.06350322
C        0.12622030      -0.66012102       0.15842437
C       -0.93864302      -1.62351165       0.56430050
C        1.43142447      -0.95665260      -0.19157798
C        2.09570124       0.27049371      -0.39947240
N        1.24736161       1.27910332      -0.28302330
H       -1.72805323       0.87787037      -1.23195867
H       -1.06722772       2.44680981      -0.84278978
H       -1.96653266       1.56365161       0.38487602
H       -0.74322318      -2.63138338       0.19463055
H       -1.91976807      -1.34493127       0.17402527
H       -1.02267320      -1.67669721       1.65237283
H        1.90162247      -1.92979548      -0.18981360
H        3.16103585       0.44827428      -0.46608607
H        0.69404236       1.72357872       0.84841045
16
Frame=15 idx=011356 GeodesicLength=0.7031624189533212 rxn_smarts="[C:1]([c:2]1[c:3]([C:4]([H:11])([H:12])[H:13])[c:5]([H:14])[c:6]([H:15])[n:7]1[H:16])([H:8])([H:9])[H:10]>>[C:1]([C@@:2]1([H:16])[C:3]([C:4]([H:11])([H:12])[H:13])=[C:5]([H:14])[C:6]([H:15])=[N:7]1)([H:8])([H:9])[H:10]"
C       -1.24990133       1.44697756      -0.44381342
C       -0.01768054       0.76410628       0.07681552
C        0.12690154      -0.65972198       0.16609938
C       -0.93812232      -1.62529799       0.56563860
C        1.42817320      -0.95672555      -0.19599148
C        2.09439857       0.27265791      -0.39482222
N        1.24715715       1.27852580      -0.26491849
H       -1.72996310       0.85053235      -1.21982259
H       -1.06135805       2.42738712      -0.88331778
H       -1.96008672       1.58870119       0.37486171
H       -0.76651334      -2.62048853       0.15215639
H       -1.92652332      -1.32021616       0.21581612
H       -0.99068076      -1.71870468       1.65302397
H        1.89691063      -1.93044787      -0.20516245
H        3.16031431       0.45009186      -0.45445683
H        0.68697407       1.75262269       0.85789359
16
Frame=16 idx=011356 GeodesicLength=0.7500827541566811 rxn_smarts="[C:1]([c:2]1[c:3]([C:4]([H:11])([H:12])[H:13])[c:5]([H:14])[c:6]([H:15])[n:7]1[H:16])([H:8])([H:9])[H:10]>>[C:1]([C@@:2]1([H:16])[C:3]([C:4]([H:11])([H:12])[H:13])=[C:5]([H:14])[C:6]([H:15])=[N:7]1)([H:8])([H:9])[H:10]"
C       -1.24605444       1.44130578      -0.45164608
C       -0.01757471       0.76708489       0.09067605
C        0.12793692      -0.65918886       0.17515261
C       -0.93771229      -1.62697750       0.56692094
C        1.42488960      -0.95660320      -0.19996797
C        2.09297920       0.27492055      -0.39022337
N        1.24695234       1.27792133      -0.24640711
H       -1.73179465       0.82296153      -1.20644087
H       -1.05497757       2.40600812      -0.92376353
H       -1.95336410       1.61375701       0.36378251
H       -0.79113984      -2.60697173       0.10964017
H       -1.93164622      -1.29593208       0.25910427
H       -0.95943919      -1.76219331       1.65099038
H        1.89184066      -1.93091629      -0.22106635
H        3.15944885       0.45185062      -0.44299360
H        0.67965545       1.78297314       0.86624195
