15
Frame=0 idx=009718 GeodesicLength=0.0 rxn_smarts="[C:1]([C@@:2]([O:3][H:12])([C@@:4]([O:5][H:14])([C:6](=[O:7])[H:15])[H:13])[H:11])([H:8])([H:9])[H:10]>>[C:1]([C@@:2]([O:3][H:12])([C@@:4]1([H:13])[O:5][C@@:6]1([O:7][H:14])[H:15])[H:11])([H:8])([H:9])[H:10]"
C       -1.01703865       0.75370841      -1.34246513
C       -0.75215890      -0.43937989      -0.44986271
O        0.07587645      -1.35563302      -1.13361932
C       -0.07123151      -0.09952771       0.87821417
O        0.35902477      -1.21242227       1.55554717
C        1.30190705       0.42346407       0.67408104
O        2.07975724       0.48861165       1.68010832
H       -1.52486764       0.43279409      -2.25189155
H       -1.65074323       1.48331301      -0.83428258
H       -0.08912054       1.24549323      -1.64498014
H       -1.70567407      -0.91650372      -0.18492947
H        0.36008433      -1.97979058      -0.44896418
H       -0.70405348       0.60492715       1.45560861
H        1.57272571      -0.09205413       2.33066554
H        1.76551252       0.66299973      -0.28322973
15
Frame=1 idx=009718 GeodesicLength=0.07773927118223202 rxn_smarts="[C:1]([C@@:2]([O:3][H:12])([C@@:4]([O:5][H:14])([C:6](=[O:7])[H:15])[H:13])[H:11])([H:8])([H:9])[H:10]>>[C:1]([C@@:2]([O:3][H:12])([C@@:4]1([H:13])[O:5][C@@:6]1([O:7][H:14])[H:15])[H:11])([H:8])([H:9])[H:10]"
C       -1.02112443       0.75201997      -1.34530904
C       -0.75208856      -0.43861439      -0.45055169
O        0.07435813      -1.35484796      -1.13599193
C       -0.07094801      -0.09022903       0.87416344
O        0.37102988      -1.19885967       1.55552780
C        1.30739980       0.42035231       0.67833647
O        2.07917613       0.49295613       1.69016735
H       -1.53283238       0.42827449      -2.25153966
H       -1.65325500       1.48291888      -0.83703689
H       -0.09409530       1.24252290      -1.65215332
H       -1.70393822      -0.91706446      -0.18185840
H        0.35945654      -1.98156155      -0.45465548
H       -0.70183734       0.61348780       1.45256798
H        1.56798549      -0.11693354       2.33590568
H        1.77071328       0.66557813      -0.27757233
15
Frame=2 idx=009718 GeodesicLength=0.15545489959144004 rxn_smarts="[C:1]([C@@:2]([O:3][H:12])([C@@:4]([O:5][H:14])([C:6](=[O:7])[H:15])[H:13])[H:11])([H:8])([H:9])[H:10]>>[C:1]([C@@:2]([O:3][H:12])([C@@:4]1([H:13])[O:5][C@@:6]1([O:7][H:14])[H:15])[H:11])([H:8])([H:9])[H:10]"
C       -1.02522980       0.75034994      -1.34804434
C       -0.75192381      -0.43786319      -0.45123806
O        0.07283412      -1.35405357      -1.13850755
C       -0.07039427      -0.08108408       0.87003254
O        0.38275830      -1.18560662       1.55535224
C        1.31302881       0.41707489       0.68257042
O        2.07886860       0.49687922       1.70000675
H       -1.54091090       0.42382478      -2.25100673
H       -1.65571304       1.48252644      -0.83957662
H       -0.09914522       1.23957490      -1.65930771
H       -1.70208733      -0.91761764      -0.17873966
H        0.35883820      -1.98341450      -0.46060816
H       -0.69935611       0.62189307       1.44946258
H        1.56244590      -0.14053785       2.34153121
H        1.77598656       0.66805421      -0.27192690
15
Frame=3 idx=009718 GeodesicLength=0.23313349787733134 rxn_smarts="[C:1]([C@@:2]([O:3][H:12])([C@@:4]([O:5][H:14])([C:6](=[O:7])[H:15])[H:13])[H:11])([H:8])([H:9])[H:10]>>[C:1]([C@@:2]([O:3][H:12])([C@@:4]1([H:13])[O:5][C@@:6]1([O:7][H:14])[H:15])[H:11])([H:8])([H:9])[H:10]"
C       -1.02935601       0.74869814      -1.35067315
C       -0.75166642      -0.43712544      -0.45192230
O        0.07130116      -1.35325147      -1.14116388
C       -0.06957255      -0.07208395       0.86581933
O        0.39423782      -1.17265514       1.55502696
C        1.31879173       0.41363439       0.68677692
O        2.07884604       0.50046539       1.70960939
H       -1.54909072       0.41944325      -2.25030055
H       -1.65812490       1.48213327      -0.84190868
H       -0.10427379       1.23665508      -1.66643922
H       -1.70012161      -0.91816250      -0.17557063
H        0.35822450      -1.98534870      -0.46681982
H       -0.69661226       0.63014759       1.44629415
H        1.55608983      -0.16296894       2.34757533
H        1.78132718       0.67041903      -0.26630385
15
Frame=4 idx=009718 GeodesicLength=0.31077117478730104 rxn_smarts="[C:1]([C@@:2]([O:3][H:12])([C@@:4]([O:5][H:14])([C:6](=[O:7])[H:15])[H:13])[H:11])([H:8])([H:9])[H:10]>>[C:1]([C@@:2]([O:3][H:12])([C@@:4]1([H:13])[O:5][C@@:6]1([O:7][H:14])[H:15])[H:11])([H:8])([H:9])[H:10]"
C       -1.03350358       0.74706470      -1.35319673
C       -0.75131820      -0.43640062      -0.45260471
O        0.06975574      -1.35244332      -1.14395866
C       -0.06848527      -0.06322122       0.86152228
O        0.40549505      -1.15999796       1.55455742
C        1.32468552       0.41003407       0.69094991
O        2.07911380       0.50379472       1.71896222
H       -1.55735872       0.41512927      -2.24942874
H       -1.66049717       1.48173694      -0.84403855
H       -0.10948323       1.23376951      -1.67354242
H       -1.69804169      -0.91869844      -0.17234929
H        0.35761022      -1.98736353      -0.47328825
H       -0.69360950       0.63825309       1.44306566
H        1.54890511      -0.18431798       2.35406301
H        1.78673195       0.67266076      -0.26071315
15
Frame=5 idx=009718 GeodesicLength=0.3883543464191802 rxn_smarts="[C:1]([C@@:2]([O:3][H:12])([C@@:4]([O:5][H:14])([C:6](=[O:7])[H:15])[H:13])[H:11])([H:8])([H:9])[H:10]>>[C:1]([C@@:2]([O:3][H:12])([C@@:4]1([H:13])[O:5][C@@:6]1([O:7][H:14])[H:15])[H:11])([H:8])([H:9])[H:10]"
C       -1.03767246       0.74545154      -1.35561603
C       -0.75088117      -0.43568950      -0.45328537
O        0.06819522      -1.35163237      -1.14689013
C       -0.06713544      -0.05449233       0.85714096
O        0.41655438      -1.14762975       1.55394844
C        1.33070722       0.40627697       0.69508309
O        2.07967505       0.50694116       1.72805461
H       -1.56570192       0.41088568      -2.24839908
H       -1.66283609       1.48133737      -0.84597054
H       -0.11477368       1.23092635      -1.68061196
H       -1.69584965      -0.91922658      -0.16907370
H        0.35699059      -1.98946108      -0.48001160
H       -0.69035387       0.64620690       1.43978196
H        1.54088340      -0.20465885       2.36101362
H        1.79219842       0.67476448      -0.25516426
15
Frame=6 idx=009718 GeodesicLength=0.46608369274084926 rxn_smarts="[C:1]([C@@:2]([O:3][H:12])([C@@:4]([O:5][H:14])([C:6](=[O:7])[H:15])[H:13])[H:11])([H:8])([H:9])[H:10]>>[C:1]([C@@:2]([O:3][H:12])([C@@:4]1([H:13])[O:5][C@@:6]1([O:7][H:14])[H:15])[H:11])([H:8])([H:9])[H:10]"
C       -1.04185674       0.74385249      -1.35792856
C       -0.75035471      -0.43498714      -0.45396003
O        0.06661575      -1.35081837      -1.14994386
C       -0.06552656      -0.04588126       0.85268009
O        0.42743597      -1.13553011       1.55321691
C        1.33685181       0.40237079       0.69918197
O        2.08051307       0.51003615       1.73687625
H       -1.57409473       0.40670077      -2.24721774
H       -1.66514078       1.48092555      -0.84771017
H       -0.12014513       1.22812271      -1.68763303
H       -1.69354169      -0.91973883      -0.16574341
H        0.35635628      -1.99163313      -0.48697213
H       -0.68685062       0.65402033       1.43644440
H        1.53201632      -0.22416545       2.36836595
H        1.79772174       0.67672550      -0.24965663
15
Frame=7 idx=009718 GeodesicLength=0.5437059483604012 rxn_smarts="[C:1]([C@@:2]([O:3][H:12])([C@@:4]([O:5][H:14])([C:6](=[O:7])[H:15])[H:13])[H:11])([H:8])([H:9])[H:10]>>[C:1]([C@@:2]([O:3][H:12])([C@@:4]1([H:13])[O:5][C@@:6]1([O:7][H:14])[H:15])[H:11])([H:8])([H:9])[H:10]"
C       -1.04606209       0.74227018      -1.36014128
C       -0.74974045      -0.43429495      -0.45463488
O        0.06501896      -1.34999572      -1.15312693
C       -0.06366319      -0.03738548       0.84812930
O        0.43815839      -1.12369962       1.55234904
C        1.34311454       0.39832220       0.70323929
O        2.08160513       0.51308922       1.74545781
H       -1.58256977       0.40257713      -2.24587437
H       -1.66740226       1.48051407      -0.84926286
H       -0.12559882       1.22535147      -1.69463315
H       -1.69111884      -0.92024242      -0.16235890
H        0.35570775      -1.99387605      -0.49418356
H       -0.68311019       0.66168584       1.43305142
H        1.52234534      -0.24284619       2.37619444
H        1.80331552       0.67853033      -0.24420537
15
Frame=8 idx=009718 GeodesicLength=0.6213745952416996 rxn_smarts="[C:1]([C@@:2]([O:3][H:12])([C@@:4]([O:5][H:14])([C:6](=[O:7])[H:15])[H:13])[H:11])([H:8])([H:9])[H:10]>>[C:1]([C@@:2]([O:3][H:12])([C@@:4]1([H:13])[O:5][C@@:6]1([O:7][H:14])[H:15])[H:11])([H:8])([H:9])[H:10]"
C       -1.05028527       0.74070385      -1.36225342
C       -0.74903559      -0.43360945      -0.45530186
O        0.06341264      -1.34917040      -1.15642296
C       -0.06154935      -0.02899120       0.84350105
O        0.44872608      -1.11211626       1.55138050
C        1.34949489       0.39413815       0.70726534
O        2.08297293       0.51616516       1.75376115
H       -1.59108103       0.39850485      -2.24438917
H       -1.66965429       1.48008563      -0.85064118
H       -0.13113670       1.22263168      -1.70158380
H       -1.68857733      -0.92073331      -0.15891481
H        0.35504524      -1.99619432      -0.50161894
H       -0.67913383       0.66922809       1.42960559
H        1.51183763      -0.26083340       2.38439583
H        1.80896398       0.68019093      -0.23878331
15
Frame=9 idx=009718 GeodesicLength=0.699012304565844 rxn_smarts="[C:1]([C@@:2]([O:3][H:12])([C@@:4]([O:5][H:14])([C:6](=[O:7])[H:15])[H:13])[H:11])([H:8])([H:9])[H:10]>>[C:1]([C@@:2]([O:3][H:12])([C@@:4]1([H:13])[O:5][C@@:6]1([O:7][H:14])[H:15])[H:11])([H:8])([H:9])[H:10]"
C       -1.05453212       0.73915303      -1.36426788
C       -0.74823997      -0.43292992      -0.45596553
O        0.06179405      -1.34833496      -1.15983907
C       -0.05918451      -0.02069367       0.83878738
O        0.45916257      -1.10077837       1.55029908
C        1.35599132       0.38982592       0.71125572
O        2.08459656       0.51929914       1.76181170
H       -1.59965025       0.39448278      -2.24275472
H       -1.67189046       1.47964391      -0.85184475
H       -0.13676670       1.21995873      -1.70849972
H       -1.68591266      -0.92121468      -0.15541142
H        0.35436923      -1.99857755      -0.50929267
H       -0.67492168       0.67664711       1.42610289
H        1.50050241      -0.27815787       2.39302887
H        1.81468219       0.68167643      -0.23340987
15
Frame=10 idx=009718 GeodesicLength=0.7766261630777879 rxn_smarts="[C:1]([C@@:2]([O:3][H:12])([C@@:4]([O:5][H:14])([C:6](=[O:7])[H:15])[H:13])[H:11])([H:8])([H:9])[H:10]>>[C:1]([C@@:2]([O:3][H:12])([C@@:4]1([H:13])[O:5][C@@:6]1([O:7][H:14])[H:15])[H:11])([H:8])([H:9])[H:10]"
C       -1.05880494       0.73761420      -1.36618745
C       -0.74734960      -0.43225250      -0.45662519
O        0.06017233      -1.34748399      -1.16336917
C       -0.05657102      -0.01247636       0.83398819
O        0.46947769      -1.08966949       1.54911452
C        1.36259982       0.38540114       0.71521906
O        2.08645715       0.52252979       1.76962081
H       -1.60829522       0.39049884      -2.24096111
H       -1.67410481       1.47919303      -0.85287708
H       -0.14249351       1.21732167      -1.71539687
H       -1.68311659      -0.92168770      -0.15184531
H        0.35368705      -2.00101777      -0.51719856
H       -0.67047983       0.68395828       1.42253917
H        1.48833713      -0.29491567       2.40205777
H        1.82048436       0.68298654      -0.22807879
15
Frame=11 idx=009718 GeodesicLength=0.8542214550837559 rxn_smarts="[C:1]([C@@:2]([O:3][H:12])([C@@:4]([O:5][H:14])([C:6](=[O:7])[H:15])[H:13])[H:11])([H:8])([H:9])[H:10]>>[C:1]([C@@:2]([O:3][H:12])([C@@:4]1([H:13])[O:5][C@@:6]1([O:7][H:14])[H:15])[H:11])([H:8])([H:9])[H:10]"
C       -1.06310633       0.73608572      -1.36801367
C       -0.74635955      -0.43157458      -0.45728111
O        0.05855449      -1.34661133      -1.16701176
C       -0.05370866      -0.00432857       0.82910149
O        0.47968112      -1.07877644       1.54783226
C        1.36932121       0.38087285       0.71916307
O        2.08854515       0.52589308       1.77719903
H       -1.61703504       0.38654567      -2.23899525
H       -1.67629528       1.47873465      -0.85374027
H       -0.14832299       1.21471218      -1.72228975
H       -1.68018031      -0.92215352      -0.14821414
H        0.35300688      -2.00350637      -0.52533675
H       -0.66580943       0.69117303       1.41890956
H        1.47532668      -0.31117511       2.41146121
H        1.82638206       0.68410874      -0.22278392
15
Frame=12 idx=009718 GeodesicLength=0.931805824201149 rxn_smarts="[C:1]([C@@:2]([O:3][H:12])([C@@:4]([O:5][H:14])([C:6](=[O:7])[H:15])[H:13])[H:11])([H:8])([H:9])[H:10]>>[C:1]([C@@:2]([O:3][H:12])([C@@:4]1([H:13])[O:5][C@@:6]1([O:7][H:14])[H:15])[H:11])([H:8])([H:9])[H:10]"
C       -1.06744180       0.73456592      -1.36974744
C       -0.74526523      -0.43089403      -0.45793288
O        0.05695027      -1.34571251      -1.17076467
C       -0.05059677       0.00376193       0.82412579
O        0.48977979      -1.06808756       1.54646134
C        1.37615942       0.37625050       0.72309336
O        2.09086971       0.52939708       1.78454602
H       -1.62587829       0.38261156      -2.23685036
H       -1.67847119       1.47826700      -0.85443824
H       -0.15426554       1.21213175      -1.72918566
H       -1.67709550      -0.92261596      -0.14451412
H        0.35233840      -2.00603748      -0.53370628
H       -0.66090784       0.69831202       1.41520731
H        1.46144167      -0.32699343       2.42122550
H        1.83238290       0.68504322      -0.21751968
15
Frame=13 idx=009718 GeodesicLength=1.0093794633494635 rxn_smarts="[C:1]([C@@:2]([O:3][H:12])([C@@:4]([O:5][H:14])([C:6](=[O:7])[H:15])[H:13])[H:11])([H:8])([H:9])[H:10]>>[C:1]([C@@:2]([O:3][H:12])([C@@:4]1([H:13])[O:5][C@@:6]1([O:7][H:14])[H:15])[H:11])([H:8])([H:9])[H:10]"
C       -1.07180967       0.73305130      -1.37139089
C       -0.74406252      -0.43020708      -0.45857949
O        0.05536234      -1.34478096      -1.17462203
C       -0.04723631       0.01180495       0.81906129
O        0.49978674      -1.05758552       1.54500644
C        1.38310428       0.37154884       0.72701983
O        2.09339280       0.53310107       1.79168121
H       -1.63484317       0.37868946      -2.23451185
H       -1.68061487       1.47779645      -0.85497377
H       -0.16032335       1.20956243      -1.73610310
H       -1.67385294      -0.92307161      -0.14074295
H        0.35168240      -2.00860076      -0.54230160
H       -0.65578015       0.70537805       1.41143007
H        1.44669507      -0.34246298       2.43130911
H        1.83849936       0.68577634      -0.21228226
15
Frame=14 idx=009718 GeodesicLength=1.0869512627520912 rxn_smarts="[C:1]([C@@:2]([O:3][H:12])([C@@:4]([O:5][H:14])([C:6](=[O:7])[H:15])[H:13])[H:11])([H:8])([H:9])[H:10]>>[C:1]([C@@:2]([O:3][H:12])([C@@:4]1([H:13])[O:5][C@@:6]1([O:7][H:14])[H:15])[H:11])([H:8])([H:9])[H:10]"
C       -1.07621462       0.73154039      -1.37293846
C       -0.74274924      -0.42951432      -0.45921898
O        0.05379840      -1.34381473      -1.17858040
C       -0.04362618       0.01980777       0.81390713
O        0.50971564      -1.04725993       1.54347800
C        1.39016035       0.36677956       0.73093870
O        2.09616293       0.53697971       1.79857380
H       -1.64390441       0.37477627      -2.23199031
H       -1.68275102       1.47730665      -0.85534338
H       -0.16650586       1.20702544      -1.74301508
H       -1.67044535      -0.92352980      -0.13689741
H        0.35104442      -2.01119223      -0.55112004
H       -0.65042479       0.71238149       1.40757729
H        1.43101341      -0.35758674       2.44170911
H        1.84472633       0.68630048      -0.20707998
15
Frame=15 idx=009718 GeodesicLength=1.1645216996403063 rxn_smarts="[C:1]([C@@:2]([O:3][H:12])([C@@:4]([O:5][H:14])([C:6](=[O:7])[H:15])[H:13])[H:11])([H:8])([H:9])[H:10]>>[C:1]([C@@:2]([O:3][H:12])([C@@:4]1([H:13])[O:5][C@@:6]1([O:7][H:14])[H:15])[H:11])([H:8])([H:9])[H:10]"
C       -1.08065938       0.73003230      -1.37439219
C       -0.74132116      -0.42881207      -0.45984934
O        0.05226638      -1.34281112      -1.18263422
C       -0.03976711       0.02778330       0.80866353
O        0.51957388      -1.03709583       1.54188336
C        1.39732493       0.36195937       0.73486034
O        2.09915297       0.54108358       1.80524223
H       -1.65307616       0.37086188      -2.22927465
H       -1.68488119       1.47680177      -0.85555163
H       -0.17281765       1.20451632      -1.74993473
H       -1.66686640      -0.92399071      -0.13297242
H        0.35042940      -2.01380770      -0.56015511
H       -0.64484718       0.71933750       1.40364440
H        1.41439996      -0.37245577       2.45238240
H        1.85108871       0.68659720      -0.20191197
15
Frame=16 idx=009718 GeodesicLength=1.2420961586941923 rxn_smarts="[C:1]([C@@:2]([O:3][H:12])([C@@:4]([O:5][H:14])([C:6](=[O:7])[H:15])[H:13])[H:11])([H:8])([H:9])[H:10]>>[C:1]([C@@:2]([O:3][H:12])([C@@:4]1([H:13])[O:5][C@@:6]1([O:7][H:14])[H:15])[H:11])([H:8])([H:9])[H:10]"
C       -1.08514862       0.72852219      -1.37575186
C       -0.73977034      -0.42809488      -0.46046972
O        0.05077424      -1.34175929      -1.18677790
C       -0.03565503       0.03574431       0.80332768
O        0.52937086      -1.02707527       1.54022860
C        1.40459767       0.35709939       0.73879359
O        2.10236465       0.54542227       1.81168979
H       -1.66237605       0.36693424      -2.22634937
H       -1.68700156       1.47627978      -0.85560019
H       -0.17927232       1.20202517      -1.75687358
H       -1.66309934      -0.92445406      -0.12896539
H        0.34984916      -2.01643024      -0.56940266
H       -0.63904177       0.72625907       1.39962289
H        1.39681501      -0.38712884       2.46330045
H        1.85759344       0.68665615      -0.19677234
