13
Frame=0 idx=003973 GeodesicLength=0.0 rxn_smarts="[C:1]([C@@:2]1([H:9])[C:3]([H:10])([H:11])[C@:4]1([O:5][H:13])[H:12])([H:6])([H:7])[H:8]>>[C:1]([C@@:2]([C:3]([C:4][H:12])([H:10])[H:11])([O:5][H:13])[H:9])([H:6])([H:7])[H:8]"
C        1.48565437       0.43041622      -0.54657484
C        0.06265628       0.01637838      -0.59455419
C       -0.53436579      -1.10901823       0.13893535
C       -1.53577336      -0.13343071       0.65371323
O       -0.58305303       0.98793694       1.02797676
H        1.95793127       0.18539771       0.40097141
H        1.61254237       1.49177443      -0.75887380
H        1.99031935      -0.12534306      -1.34871712
H       -0.52803766       0.36991486      -1.43071769
H        0.16791611      -1.60191132       0.82651251
H       -0.99177698      -1.83787698      -0.53537456
H       -2.12405824      -0.44798428       1.51339217
H       -0.97995468       1.77374608       0.65331079
13
Frame=1 idx=003973 GeodesicLength=0.037080166948420167 rxn_smarts="[C:1]([C@@:2]1([H:9])[C:3]([H:10])([H:11])[C@:4]1([O:5][H:13])[H:12])([H:6])([H:7])[H:8]>>[C:1]([C@@:2]([C:3]([C:4][H:12])([H:10])[H:11])([O:5][H:13])[H:9])([H:6])([H:7])[H:8]"
C        1.48106786       0.43043909      -0.54846142
C        0.05413235       0.02447846      -0.58781777
C       -0.53113475      -1.11414827       0.13902084
C       -1.53113052      -0.13262602       0.64645612
O       -0.57710179       0.98721290       1.03546620
H        1.95286919       0.19082741       0.40096115
H        1.61196511       1.49016233      -0.76724850
H        1.98412839      -0.13234667      -1.34609763
H       -0.52940388       0.36826188      -1.43339911
H        0.17183613      -1.59925387       0.83027182
H       -0.98350964      -1.84567993      -0.53500580
H       -2.13278745      -0.44591251       1.49693089
H       -0.97093101       1.77858521       0.66892323
13
Frame=2 idx=003973 GeodesicLength=0.07416042155832492 rxn_smarts="[C:1]([C@@:2]1([H:9])[C:3]([H:10])([H:11])[C@:4]1([O:5][H:13])[H:12])([H:6])([H:7])[H:8]>>[C:1]([C@@:2]([C:3]([C:4][H:12])([H:10])[H:11])([O:5][H:13])[H:9])([H:6])([H:7])[H:8]"
C        1.47645401       0.43041308      -0.55028145
C        0.04566414       0.03247898      -0.58116567
C       -0.52793784      -1.11912788       0.13899995
C       -1.52647587      -0.13185396       0.63943433
O       -0.57126160       0.98656377       1.04276206
H        1.94777220       0.19624406       0.40099858
H        1.61129637       1.48845643      -0.77554207
H        1.97802893      -0.13927926      -1.34333585
H       -0.53057739       0.36656320      -1.43599591
H        0.17560105      -1.59667311       0.83380254
H       -0.97537106      -1.85326136      -0.53471944
H       -2.14103207      -0.44378925       1.48076715
H       -0.96216087       1.78326530       0.68427579
13
Frame=3 idx=003973 GeodesicLength=0.11125464637896026 rxn_smarts="[C:1]([C@@:2]1([H:9])[C:3]([H:10])([H:11])[C@:4]1([O:5][H:13])[H:12])([H:6])([H:7])[H:8]>>[C:1]([C@@:2]([C:3]([C:4][H:12])([H:10])[H:11])([O:5][H:13])[H:9])([H:6])([H:7])[H:8]"
C        1.47180894       0.43033802      -0.55204000
C        0.03725177       0.04038174      -0.57459426
C       -0.52476739      -1.12396038       0.13887615
C       -1.52181439      -0.13111079       0.63262883
O       -0.56551736       0.98597894       1.04987483
H        1.94263639       0.20165246       0.40107487
H        1.61052457       1.48665402      -0.78376872
H        1.97201397      -0.14615128      -1.34042992
H       -0.53157435       0.36482630      -1.43848994
H        0.17922520      -1.59415705       0.83711182
H       -0.96733574      -1.86063591      -0.53450798
H       -2.14883812      -0.44161384       1.46487086
H       -0.95361348       1.78779777       0.69939345
13
Frame=4 idx=003973 GeodesicLength=0.14833877016447566 rxn_smarts="[C:1]([C@@:2]1([H:9])[C:3]([H:10])([H:11])[C@:4]1([O:5][H:13])[H:12])([H:6])([H:7])[H:8]>>[C:1]([C@@:2]([C:3]([C:4][H:12])([H:10])[H:11])([O:5][H:13])[H:9])([H:6])([H:7])[H:8]"
C        1.46713927       0.43021041      -0.55373092
C        0.02889608       0.04817776      -0.56811238
C       -0.52162560      -1.12865894       0.13864807
C       -1.51715361      -0.13039567       0.62604311
O       -0.55988434       0.98548696       1.05678534
H        1.93747636       0.20700177       0.40118735
H        1.60966135       1.48476866      -0.79186254
H        1.96609033      -0.15292481      -1.33741885
H       -0.53239796       0.36305562      -1.44088743
H        0.18271523      -1.59172255       0.84021053
H       -0.95942105      -1.86781782      -0.53437387
H       -2.15618039      -0.43938785       1.44928952
H       -0.94531565       1.79220646       0.71422207
13
Frame=5 idx=003973 GeodesicLength=0.18543295534782006 rxn_smarts="[C:1]([C@@:2]1([H:9])[C:3]([H:10])([H:11])[C@:4]1([O:5][H:13])[H:12])([H:6])([H:7])[H:8]>>[C:1]([C@@:2]([C:3]([C:4][H:12])([H:10])[H:11])([O:5][H:13])[H:9])([H:6])([H:7])[H:8]"
C        1.46244981       0.43004069      -0.55536094
C        0.02060354       0.05586878      -0.56170632
C       -0.51852293      -1.13322333       0.13832473
C       -1.51250333      -0.12972028       0.61965459
O       -0.55433911       0.98506072       1.06348875
H        1.93228880       0.21232012       0.40132823
H        1.60871754       1.48280312      -0.79985231
H        1.96025518      -0.15959648      -1.33429175
H       -0.53306659       0.36126714      -1.44317549
H        0.18605635      -1.58934496       0.84311240
H       -0.95162660      -1.87481357      -0.53429694
H       -2.16309904      -0.43713397       1.43400128
H       -0.93721362       1.79647203       0.72877376
13
Frame=6 idx=003973 GeodesicLength=0.22250979242951324 rxn_smarts="[C:1]([C@@:2]1([H:9])[C:3]([H:10])([H:11])[C@:4]1([O:5][H:13])[H:12])([H:6])([H:7])[H:8]>>[C:1]([C@@:2]([C:3]([C:4][H:12])([H:10])[H:11])([O:5][H:13])[H:9])([H:6])([H:7])[H:8]"
C        1.45774296       0.42982347      -0.55692305
C        0.01237030       0.06345010      -0.55539177
C       -0.51545954      -1.13766059       0.13790752
C       -1.50786080      -0.12908645       0.61347182
O       -0.54889538       0.98473148       1.06995930
H        1.92708017       0.21754294       0.40148095
H        1.60770606       1.48076481      -0.80766645
H        1.95450798      -0.16611836      -1.33108502
H       -0.53356517       0.35945469      -1.44533234
H        0.18924966      -1.58703613       0.84582032
H       -0.94396839      -1.88162425      -0.53427092
H       -2.16956291      -0.43486054       1.41904332
H       -0.92934491       1.80061883       0.74298633
13
Frame=7 idx=003973 GeodesicLength=0.25956800752208464 rxn_smarts="[C:1]([C@@:2]1([H:9])[C:3]([H:10])([H:11])[C@:4]1([O:5][H:13])[H:12])([H:6])([H:7])[H:8]>>[C:1]([C@@:2]([C:3]([C:4][H:12])([H:10])[H:11])([O:5][H:13])[H:9])([H:6])([H:7])[H:8]"
C        1.45302671       0.42955738      -0.55842499
C        0.00419860       0.07092052      -0.54916525
C       -0.51242634      -1.14198427       0.13739550
C       -1.50324542      -0.12848635       0.60747697
O       -0.54355010       0.98449672       1.07622434
H        1.92186688       0.22268058       0.40166144
H        1.60662253       1.47865962      -0.81532920
H        1.94886360      -0.17252021      -1.32781071
H       -0.53393422       0.35764475      -1.44738215
H        0.19232303      -1.58479883       0.84835418
H       -0.93642141      -1.88828211      -0.53430880
H       -2.17562847      -0.43255572       1.40441113
H       -0.92169539       1.80466792       0.75689753
13
Frame=8 idx=003973 GeodesicLength=0.29662031080531887 rxn_smarts="[C:1]([C@@:2]1([H:9])[C:3]([H:10])([H:11])[C@:4]1([O:5][H:13])[H:12])([H:6])([H:7])[H:8]>>[C:1]([C@@:2]([C:3]([C:4][H:12])([H:10])[H:11])([O:5][H:13])[H:9])([H:6])([H:7])[H:8]"
C        1.44829859       0.42924868      -0.55987143
C       -0.00391295       0.07828560      -0.54302216
C       -0.50942489      -1.14619486       0.13679449
C       -1.49865645      -0.12792299       0.60165824
O       -0.53828806       0.98433824       1.08229375
H        1.91664061       0.22775805       0.40186127
H        1.60546830       1.47648571      -0.82286809
H        1.94331359      -0.17881114      -1.32445675
H       -0.53417865       0.35584177      -1.44930947
H        0.19527508      -1.58262059       0.85071943
H       -0.92897759      -1.89479224      -0.53439664
H       -2.18133192      -0.43023301       1.39006911
H       -0.91422565       1.80861677       0.77052824
13
Frame=9 idx=003973 GeodesicLength=0.33366667298883024 rxn_smarts="[C:1]([C@@:2]1([H:9])[C:3]([H:10])([H:11])[C@:4]1([O:5][H:13])[H:12])([H:6])([H:7])[H:8]>>[C:1]([C@@:2]([C:3]([C:4][H:12])([H:10])[H:11])([O:5][H:13])[H:9])([H:6])([H:7])[H:8]"
C        1.44357037       0.42890634      -0.56127194
C       -0.01196767       0.08554949      -0.53696482
C       -0.50646085      -1.15030267       0.13611260
C       -1.49410642      -0.12740090       0.59600774
O       -0.53309922       0.98424466       1.08818644
H        1.91141724       0.23279409       0.40208167
H        1.60425727       1.47425419      -0.83031313
H        1.93786800      -0.18499483      -1.32102990
H       -0.53431232       0.35405843      -1.45111997
H        0.19810766      -1.58050137       0.85294005
H       -0.92163875      -1.90117573      -0.53452859
H       -2.18672549      -0.42790358       1.37599809
H       -0.90690982       1.81247187       0.78390175
13
Frame=10 idx=003973 GeodesicLength=0.3707322329790901 rxn_smarts="[C:1]([C@@:2]1([H:9])[C:3]([H:10])([H:11])[C@:4]1([O:5][H:13])[H:12])([H:6])([H:7])[H:8]>>[C:1]([C@@:2]([C:3]([C:4][H:12])([H:10])[H:11])([O:5][H:13])[H:9])([H:6])([H:7])[H:8]"
C        1.43882195       0.42852077      -0.56262502
C       -0.01996493       0.09271336      -0.53098365
C       -0.50351814      -1.15430336       0.13534586
C       -1.48958636      -0.12691043       0.59050372
O       -0.52797142       0.98420884       1.09390627
H        1.90616977       0.23779107       0.40230970
H        1.60295658       1.47194817      -0.83766610
H        1.93250636      -0.19109342      -1.31751352
H       -0.53434536       0.35229458      -1.45278690
H        0.20083328      -1.57842242       0.85500634
H       -0.91435912      -1.90743394      -0.53470231
H       -2.19182255      -0.42555485       1.36216068
H       -0.89972007       1.81624164       0.79704493
13
Frame=11 idx=003973 GeodesicLength=0.40778647776114285 rxn_smarts="[C:1]([C@@:2]1([H:9])[C:3]([H:10])([H:11])[C@:4]1([O:5][H:13])[H:12])([H:6])([H:7])[H:8]>>[C:1]([C@@:2]([C:3]([C:4][H:12])([H:10])[H:11])([O:5][H:13])[H:9])([H:6])([H:7])[H:8]"
C        1.43406001       0.42808657      -0.56392215
C       -0.02790165       0.09976872      -0.52507767
C       -0.50059770      -1.15820127       0.13449579
C       -1.48509133      -0.12645137       0.58515403
O       -0.52292877       0.98425292       1.09942206
H        1.90090706       0.24269127       0.40254150
H        1.60158468       1.46957376      -0.84485748
H        1.92722862      -0.19706823      -1.31394891
H       -0.53427354       0.35055999      -1.45430993
H        0.20345376      -1.57639121       0.85691731
H       -0.90715992      -1.91356196      -0.53491153
H       -2.19657797      -0.42318551       1.34860401
H       -0.89270324       1.81992632       0.80989297
13
Frame=12 idx=003973 GeodesicLength=0.4448240396205341 rxn_smarts="[C:1]([C@@:2]1([H:9])[C:3]([H:10])([H:11])[C@:4]1([O:5][H:13])[H:12])([H:6])([H:7])[H:8]>>[C:1]([C@@:2]([C:3]([C:4][H:12])([H:10])[H:11])([O:5][H:13])[H:9])([H:6])([H:7])[H:8]"
C        1.42931096       0.42762350      -0.56517683
C       -0.03578081       0.10672446      -0.51925561
C       -0.49771839      -1.16201458       0.13357234
C       -1.48065286      -0.12604032       0.57995227
O       -0.51795161       0.98437025       1.10476076
H        1.89566206       0.24753433       0.40279265
H        1.60017845       1.46715730      -0.85194205
H        1.92206222      -0.20292460      -1.31033370
H       -0.53412300       0.34886764      -1.45571928
H        0.20596435      -1.57441847       0.85870732
H       -0.90006708      -1.91958870      -0.53515954
H       -2.20106264      -0.42083358       1.33533159
H       -0.88582166       1.82354277       0.82247007
13
Frame=13 idx=003973 GeodesicLength=0.4818699953562514 rxn_smarts="[C:1]([C@@:2]1([H:9])[C:3]([H:10])([H:11])[C@:4]1([O:5][H:13])[H:12])([H:6])([H:7])[H:8]>>[C:1]([C@@:2]([C:3]([C:4][H:12])([H:10])[H:11])([O:5][H:13])[H:9])([H:6])([H:7])[H:8]"
C        1.42455477       0.42712217      -0.56638739
C       -0.04360082       0.11358172      -0.51350439
C       -0.49486142      -1.16573808       0.13257297
C       -1.47625482      -0.12566534       0.57488131
O       -0.51303218       0.98455112       1.10992775
H        1.89040784       0.25232323       0.40304933
H        1.59870473       1.46468083      -0.85892054
H        1.91698257      -0.20868481      -1.30665594
H       -0.53389917       0.34721636      -1.45698825
H        0.20837853      -1.57248765       0.86036633
H       -0.89303738      -1.92551182      -0.53544198
H       -2.20529054      -0.41848169       1.32229850
H       -0.87905210       1.82709397       0.83480230
13
Frame=14 idx=003973 GeodesicLength=0.5189078303699637 rxn_smarts="[C:1]([C@@:2]1([H:9])[C:3]([H:10])([H:11])[C@:4]1([O:5][H:13])[H:12])([H:6])([H:7])[H:8]>>[C:1]([C@@:2]([C:3]([C:4][H:12])([H:10])[H:11])([O:5][H:13])[H:9])([H:6])([H:7])[H:8]"
C        1.41979694       0.42658055      -0.56754444
C       -0.05136372       0.12033774      -0.50782799
C       -0.49203557      -1.16938013       0.13149338
C       -1.47189194      -0.12533139       0.56994862
O       -0.50819090       0.98482154       1.11489226
H        1.88514717       0.25702117       0.40331841
H        1.59718596       1.46215263      -0.86574750
H        1.91199411      -0.21432924      -1.30293072
H       -0.53359772       0.34562215      -1.45811889
H        0.21069024      -1.57061174       0.86188893
H       -0.88610203      -1.93132842      -0.53576273
H       -2.20919341      -0.41614276       1.30955939
H       -0.87243913       1.83058790       0.84683127
13
Frame=15 idx=003973 GeodesicLength=0.5559277172785251 rxn_smarts="[C:1]([C@@:2]1([H:9])[C:3]([H:10])([H:11])[C@:4]1([O:5][H:13])[H:12])([H:6])([H:7])[H:8]>>[C:1]([C@@:2]([C:3]([C:4][H:12])([H:10])[H:11])([O:5][H:13])[H:9])([H:6])([H:7])[H:8]"
C        1.41504868       0.42600429      -0.56865560
C       -0.05906782       0.12699633      -0.50222405
C       -0.48924119      -1.17294537       0.13033828
C       -1.46758410      -0.12504195       0.56514272
O       -0.50341621       0.98517349       1.11967468
H        1.87989475       0.26164408       0.40360171
H        1.59562975       1.45957712      -0.87245328
H        1.90710829      -0.21986568      -1.29915841
H       -0.53323686       0.34409078      -1.45912259
H        0.21290590      -1.56878537       0.86329123
H       -0.87925248      -1.93704970      -0.53612521
H       -2.21283374      -0.41383170       1.29711148
H       -0.86595496       1.83403370       0.85857903
13
Frame=16 idx=003973 GeodesicLength=0.5929422096912164 rxn_smarts="[C:1]([C@@:2]1([H:9])[C:3]([H:10])([H:11])[C@:4]1([O:5][H:13])[H:12])([H:6])([H:7])[H:8]>>[C:1]([C@@:2]([C:3]([C:4][H:12])([H:10])[H:11])([O:5][H:13])[H:9])([H:6])([H:7])[H:8]"
C        1.41030529       0.42539370      -0.56972416
C       -0.06671496       0.13356034      -0.49668717
C       -0.48647369      -1.17643622       0.12911201
C       -1.46332505      -0.12479390       0.56045585
O       -0.49870251       0.98559755       1.12428580
H        1.87464528       0.26620048       0.40389354
H        1.59402933       1.45695180      -0.87905050
H        1.90231655      -0.22530350      -1.29533803
H       -0.53282315       0.34262745      -1.45999183
H        0.21503042      -1.56700420       0.86457892
H       -0.87247211      -1.94268427      -0.53652088
H       -2.21623349      -0.41154200       1.28491842
H       -0.85958192       1.83743277       0.87006805
