10
Frame=0 idx=002389 GeodesicLength=0.0 rxn_smarts="[N:1]([c:2]1[n:3][n:4]([H:9])[n:5][c:6]1[H:10])([H:7])[H:8]>>[N:1]([c:2]1[n:3]([H:9])[n:4][n:5][c:6]1[H:10])([H:7])[H:8]"
N        1.62139612      -0.36271723       0.21320976
C        0.29353988      -0.10447609      -0.01978105
N       -0.56852117      -1.06945852      -0.34711539
N       -1.86402221      -0.41307323      -0.39995010
N       -1.70694379       0.84617628      -0.10204164
C       -0.41427711       1.09363705       0.06859882
H        2.24916244       0.41206185       0.09019265
H        1.95989080      -1.22288359      -0.18352082
H       -1.52070182      -1.26990537       0.41863788
H       -0.04952315       2.09063884       0.26176989
10
Frame=1 idx=002389 GeodesicLength=0.04505258785769277 rxn_smarts="[N:1]([c:2]1[n:3][n:4]([H:9])[n:5][c:6]1[H:10])([H:7])[H:8]>>[N:1]([c:2]1[n:3]([H:9])[n:4][n:5][c:6]1[H:10])([H:7])[H:8]"
N        1.62411253      -0.36316361       0.21625550
C        0.29447473      -0.10228286      -0.00781684
N       -0.56990105      -1.06415404      -0.33630190
N       -1.85644209      -0.40905678      -0.40113680
N       -1.70589253       0.84745133      -0.09178181
C       -0.41227871       1.09628330       0.07744468
H        2.25033073       0.41269319       0.09123358
H        1.96079058      -1.21873630      -0.19209799
H       -1.54079785      -1.29660782       0.40487604
H       -0.04439636       2.09757357       0.23932554
10
Frame=2 idx=002389 GeodesicLength=0.09006132533333759 rxn_smarts="[N:1]([c:2]1[n:3][n:4]([H:9])[n:5][c:6]1[H:10])([H:7])[H:8]>>[N:1]([c:2]1[n:3]([H:9])[n:4][n:5][c:6]1[H:10])([H:7])[H:8]"
N        1.62694489      -0.36339895       0.21908251
C        0.29556717      -0.09991946       0.00396667
N       -0.57137603      -1.05910302      -0.32375505
N       -1.84875487      -0.40506944      -0.40167317
N       -1.70465065       0.84883362      -0.08196131
C       -0.40999356       1.09927718       0.08491183
H        2.25163542       0.41343841       0.09162674
H        1.96156679      -1.21455887      -0.20033818
H       -1.56132228      -1.32324176       0.38985366
H       -0.03961687       2.10374229       0.21828631
10
Frame=3 idx=002389 GeodesicLength=0.1349956571049204 rxn_smarts="[N:1]([c:2]1[n:3][n:4]([H:9])[n:5][c:6]1[H:10])([H:7])[H:8]>>[N:1]([c:2]1[n:3]([H:9])[n:4][n:5][c:6]1[H:10])([H:7])[H:8]"
N        1.62991259      -0.36340980       0.22155362
C        0.29684834      -0.09737728       0.01535339
N       -0.57299105      -1.05446730      -0.30897829
N       -1.84094085      -0.40130266      -0.40162130
N       -1.70317014       0.85036204      -0.07341899
C       -0.40742656       1.10259353       0.09057376
H        2.25308952       0.41430709       0.09120471
H        1.96223695      -1.21038302      -0.20833720
H       -1.58230474      -1.34954087       0.37393819
H       -0.03525406       2.10921827       0.19973211
10
Frame=4 idx=002389 GeodesicLength=0.17983576725051828 rxn_smarts="[N:1]([c:2]1[n:3][n:4]([H:9])[n:5][c:6]1[H:10])([H:7])[H:8]>>[N:1]([c:2]1[n:3]([H:9])[n:4][n:5][c:6]1[H:10])([H:7])[H:8]"
N        1.63304884      -0.36315036       0.22356211
C        0.29833741      -0.09464213       0.02628666
N       -0.57476807      -1.05033535      -0.29152392
N       -1.83293882      -0.39791046      -0.40112895
N       -1.70142583       0.85206431      -0.06681355
C       -0.40462524       1.10617375       0.09439557
H        2.25470067       0.41531463       0.08959300
H        1.96277906      -1.20629261      -0.21604012
H       -1.60379815      -1.37538936       0.35727613
H       -0.03130987       2.11416758       0.18439307
10
Frame=5 idx=002389 GeodesicLength=0.22459476394361155 rxn_smarts="[N:1]([c:2]1[n:3][n:4]([H:9])[n:5][c:6]1[H:10])([H:7])[H:8]>>[N:1]([c:2]1[n:3]([H:9])[n:4][n:5][c:6]1[H:10])([H:7])[H:8]"
N        1.63638144      -0.36273567       0.22510579
C        0.30000291      -0.09177729       0.03727505
N       -0.57674339      -1.04668859      -0.27093573
N       -1.82464317      -0.39490775      -0.40033390
N       -1.69941032       0.85392821      -0.06211257
C       -0.40164563       1.10990328       0.09708196
H        2.25642192       0.41648016       0.08727096
H        1.96317252      -1.20204938      -0.22420010
H       -1.62596422      -1.40094462       0.33954225
H       -0.02757205       2.11879166       0.17130629
10
Frame=6 idx=002389 GeodesicLength=0.2692594486718634 rxn_smarts="[N:1]([c:2]1[n:3][n:4]([H:9])[n:5][c:6]1[H:10])([H:7])[H:8]>>[N:1]([c:2]1[n:3]([H:9])[n:4][n:5][c:6]1[H:10])([H:7])[H:8]"
N        1.63987154      -0.36217153       0.22625149
C        0.30184660      -0.08870269       0.04830006
N       -0.57895308      -1.04333267      -0.24719664
N       -1.81603755      -0.39225004      -0.39914255
N       -1.69718481       0.85592699      -0.05884615
C       -0.39855588       1.11377310       0.09917765
H        2.25825598       0.41773810       0.08418036
H        1.96328974      -1.19776579      -0.23261262
H       -1.64857268      -1.42648303       0.32017496
H       -0.02395987       2.12326755       0.15971343
10
Frame=7 idx=002389 GeodesicLength=0.3138319809883168 rxn_smarts="[N:1]([c:2]1[n:3][n:4]([H:9])[n:5][c:6]1[H:10])([H:7])[H:8]>>[N:1]([c:2]1[n:3]([H:9])[n:4][n:5][c:6]1[H:10])([H:7])[H:8]"
N        1.64360140      -0.36140677       0.22688423
C        0.30384685      -0.08545142       0.06003743
N       -0.58143002      -1.04025355      -0.21935347
N       -1.80685176      -0.39001883      -0.39792665
N       -1.69468188       0.85806726      -0.05759697
C       -0.39540064       1.11773597       0.10114227
H        2.26016034       0.41914156       0.07972496
H        1.96296274      -1.19345079      -0.24145853
H       -1.67174552      -1.45199279       0.29878161
H       -0.02046152       2.12762936       0.14976512
10
Frame=8 idx=002389 GeodesicLength=0.35829762479666405 rxn_smarts="[N:1]([c:2]1[n:3][n:4]([H:9])[n:5][c:6]1[H:10])([H:7])[H:8]>>[N:1]([c:2]1[n:3]([H:9])[n:4][n:5][c:6]1[H:10])([H:7])[H:8]"
N        1.64759052      -0.36036463       0.22687312
C        0.30599193      -0.08195455       0.07289443
N       -0.58425480      -1.03730572      -0.18644469
N       -1.79683231      -0.38835567      -0.39692434
N       -1.69183689       0.86036871      -0.05913949
C       -0.39223902       1.12182510       0.10316757
H        2.26208638       0.42065864       0.07303499
H        1.96189409      -1.18931869      -0.25056242
H       -1.69525343      -1.47751058       0.27498322
H       -0.01714648       2.13195740       0.14211761
10
Frame=9 idx=002389 GeodesicLength=0.40254347564909615 rxn_smarts="[N:1]([c:2]1[n:3][n:4]([H:9])[n:5][c:6]1[H:10])([H:7])[H:8]>>[N:1]([c:2]1[n:3]([H:9])[n:4][n:5][c:6]1[H:10])([H:7])[H:8]"
N        1.65151827      -0.35928325       0.22630554
C        0.30830806      -0.07795424       0.08516297
N       -0.58770683      -1.03403424      -0.14891095
N       -1.78639821      -0.38732158      -0.39511450
N       -1.68878247       0.86286348      -0.06298225
C       -0.38906273       1.12624096       0.10423740
H        2.26408276       0.42193229       0.06524320
H        1.95995494      -1.18562079      -0.25969500
H       -1.71781883      -1.50332705       0.24884943
H       -0.01409497       2.13650442       0.13690414
10
Frame=10 idx=002389 GeodesicLength=0.4464999919638091 rxn_smarts="[N:1]([c:2]1[n:3][n:4]([H:9])[n:5][c:6]1[H:10])([H:7])[H:8]>>[N:1]([c:2]1[n:3]([H:9])[n:4][n:5][c:6]1[H:10])([H:7])[H:8]"
N        1.65518986      -0.35824418       0.22533636
C        0.31068342      -0.07331882       0.09665767
N       -0.59193485      -1.02985682      -0.10700225
N       -1.77580976      -0.38678960      -0.39180179
N       -1.68563167       0.86562191      -0.06841344
C       -0.38591945       1.13114387       0.10439654
H        2.26609610       0.42269696       0.05621815
H        1.95682697      -1.18274975      -0.26826161
H       -1.73822015      -1.52999137       0.21943445
H       -0.01128046       2.14148780       0.13343592
10
Frame=11 idx=002389 GeodesicLength=0.49015611279335874 rxn_smarts="[N:1]([c:2]1[n:3][n:4]([H:9])[n:5][c:6]1[H:10])([H:7])[H:8]>>[N:1]([c:2]1[n:3]([H:9])[n:4][n:5][c:6]1[H:10])([H:7])[H:8]"
N        1.65882250      -0.35726856       0.22333167
C        0.31288711      -0.06834057       0.11133503
N       -0.59722973      -1.02464203      -0.05650287
N       -1.76371652      -0.38729274      -0.38874740
N       -1.68174247       0.86869457      -0.07961419
C       -0.38286722       1.13639442       0.10471671
H        2.26766625       0.42311216       0.04392419
H        1.95142286      -1.18034612      -0.27830647
H       -1.75646502      -1.55709601       0.18628816
H       -0.00877777       2.14678488       0.13357518
10
Frame=12 idx=002389 GeodesicLength=0.5333353052264906 rxn_smarts="[N:1]([c:2]1[n:3][n:4]([H:9])[n:5][c:6]1[H:10])([H:7])[H:8]>>[N:1]([c:2]1[n:3]([H:9])[n:4][n:5][c:6]1[H:10])([H:7])[H:8]"
N        1.66134160      -0.35667343       0.22178204
C        0.31474686      -0.06228969       0.12344342
N       -0.60371081      -1.01683106      -0.00471042
N       -1.75330759      -0.38748381      -0.38055222
N       -1.67843857       0.87235276      -0.08797582
C       -0.37979477       1.14275287       0.10265734
H        2.26906644       0.42198268       0.03091381
H        1.94415199      -1.18016065      -0.28504261
H       -1.76771826      -1.58679788       0.14676505
H       -0.00633688       2.15314821       0.13271941
10
Frame=13 idx=002389 GeodesicLength=0.5761519614926598 rxn_smarts="[N:1]([c:2]1[n:3][n:4]([H:9])[n:5][c:6]1[H:10])([H:7])[H:8]>>[N:1]([c:2]1[n:3]([H:9])[n:4][n:5][c:6]1[H:10])([H:7])[H:8]"
N        1.66294991      -0.35667975       0.21991267
C        0.31575280      -0.05566348       0.14133492
N       -0.61198571      -1.00636982       0.05546261
N       -1.74231764      -0.38786189      -0.36977254
N       -1.67477155       0.87659511      -0.09832685
C       -0.37678004       1.14993066       0.10098584
H        2.26922971       0.41949453       0.01444826
H        1.93271025      -1.18120188      -0.29258588
H       -1.77112839      -1.61850608       0.09802897
H       -0.00365934       2.16026259       0.13051200
10
Frame=14 idx=002389 GeodesicLength=0.6182713303930003 rxn_smarts="[N:1]([c:2]1[n:3][n:4]([H:9])[n:5][c:6]1[H:10])([H:7])[H:8]>>[N:1]([c:2]1[n:3]([H:9])[n:4][n:5][c:6]1[H:10])([H:7])[H:8]"
N        1.66264178      -0.35768429       0.21904800
C        0.31570072      -0.04816594       0.15745395
N       -0.62200280      -0.99277174       0.11634425
N       -1.73510004      -0.38717404      -0.35028099
N       -1.67257547       0.88192088      -0.10253700
C       -0.37380101       1.15820877       0.09631212
H        2.26857057       0.41459927      -0.00198517
H        1.91846039      -1.18502776      -0.29632539
H       -1.76138873      -1.65223844       0.03842850
H       -0.00050539       2.16833329       0.12354174
10
Frame=15 idx=002389 GeodesicLength=0.6597011881457205 rxn_smarts="[N:1]([c:2]1[n:3][n:4]([H:9])[n:5][c:6]1[H:10])([H:7])[H:8]>>[N:1]([c:2]1[n:3]([H:9])[n:4][n:5][c:6]1[H:10])([H:7])[H:8]"
N        1.66023898      -0.36028218       0.21875416
C        0.31407490      -0.04055661       0.17666989
N       -0.63411194      -0.97674492       0.18068026
N       -1.73096853      -0.38603083      -0.32326978
N       -1.67141779       0.88806610      -0.10415596
C       -0.37113539       1.16676673       0.09036094
H        2.26622422       0.40734949      -0.01838510
H        1.89998836      -1.19054393      -0.29996740
H       -1.73605730      -1.68452497      -0.03195014
H        0.00316448       2.17650111       0.11126313
10
Frame=16 idx=002389 GeodesicLength=0.7008555018082763 rxn_smarts="[N:1]([c:2]1[n:3][n:4]([H:9])[n:5][c:6]1[H:10])([H:7])[H:8]>>[N:1]([c:2]1[n:3]([H:9])[n:4][n:5][c:6]1[H:10])([H:7])[H:8]"
N        1.65599256      -0.36375196       0.21845032
C        0.31139052      -0.03304546       0.18844521
N       -0.64682053      -0.95868793       0.24159853
N       -1.73179746      -0.38528162      -0.28908000
N       -1.67154342       0.89428192      -0.10846877
C       -0.36884280       1.17464902       0.07485733
H        2.26296420       0.39735919      -0.03651787
H        1.88093515      -1.19977841      -0.29783662
H       -1.69660931      -1.70987184      -0.10115123
H        0.00433107       2.18412710       0.10970308
