12
Frame=0 idx=000931 GeodesicLength=0.0 rxn_smarts="[O:1]([C@@:2]1([H:8])[C:3]([H:9])([H:10])[C@@:4]2([H:11])[O:5][C@@:6]12[H:12])[H:7]>>[O:1]([C@@:2]1([H:8])[C:3]([H:9])([H:10])[C-:4]=[O+:5][C:6]1([H:11])[H:12])[H:7]"
O        1.32512122      -0.72311965      -1.17229559
C        0.17363031      -0.66717904      -0.38296475
C        0.29637035      -0.27791912       1.10729853
C       -0.65746342       0.93886659       1.05483726
O       -0.15224387       1.62594015      -0.08116952
C       -0.74900663       0.50595261      -0.67360977
H        1.76577620       0.12929656      -1.11571974
H       -0.33366165      -1.62479707      -0.50099843
H       -0.02625102      -1.05163081       1.80085410
H        1.29179349       0.06915706       1.38825677
H       -1.64666141       0.35083578       0.16752573
H       -1.28740357       0.72459695      -1.59201458
12
Frame=1 idx=000931 GeodesicLength=0.050299513758445435 rxn_smarts="[O:1]([C@@:2]1([H:8])[C:3]([H:9])([H:10])[C@@:4]2([H:11])[O:5][C@@:6]12[H:12])[H:7]>>[O:1]([C@@:2]1([H:8])[C:3]([H:9])([H:10])[C-:4]=[O+:5][C:6]1([H:11])[H:12])[H:7]"
O        1.32591391      -0.71880322      -1.17303113
C        0.17388685      -0.66763546      -0.38366121
C        0.30041582      -0.27785988       1.10637247
C       -0.64809509       0.94010318       1.05318425
O       -0.15661248       1.62669622      -0.08350948
C       -0.75403780       0.50179646      -0.67315415
H        1.76558911       0.13389139      -1.11324935
H       -0.32910605      -1.62745198      -0.50173342
H       -0.03232447      -1.04853053       1.79903463
H        1.29820885       0.05896160       1.39080015
H       -1.66304554       0.36054809       0.17739216
H       -1.28079309       0.71828414      -1.59844492
12
Frame=2 idx=000931 GeodesicLength=0.10058512500112218 rxn_smarts="[O:1]([C@@:2]1([H:8])[C:3]([H:9])([H:10])[C@@:4]2([H:11])[O:5][C@@:6]12[H:12])[H:7]>>[O:1]([C@@:2]1([H:8])[C:3]([H:9])([H:10])[C-:4]=[O+:5][C:6]1([H:11])[H:12])[H:7]"
O        1.32677735      -0.71443060      -1.17377477
C        0.17421091      -0.66812475      -0.38439672
C        0.30444479      -0.27783592       1.10541474
C       -0.63876500       0.94128171       1.05136836
O       -0.16102160       1.62738003      -0.08592082
C       -0.75911351       0.49751798      -0.67270175
H        1.76541897       0.13855419      -1.11075169
H       -0.32440959      -1.63015120      -0.50253555
H       -0.03838751      -1.04537130       1.79714459
H        1.30450252       0.04861673       1.39338515
H       -1.67946476       0.37076819       0.18749370
H       -1.27419257       0.71179493      -1.60472524
12
Frame=3 idx=000931 GeodesicLength=0.15086551570561055 rxn_smarts="[O:1]([C@@:2]1([H:8])[C:3]([H:9])([H:10])[C@@:4]2([H:11])[O:5][C@@:6]12[H:12])[H:7]>>[O:1]([C@@:2]1([H:8])[C:3]([H:9])([H:10])[C-:4]=[O+:5][C:6]1([H:11])[H:12])[H:7]"
O        1.32771401      -0.70999987      -1.17452626
C        0.17460490      -0.66864813      -0.38517270
C        0.30845625      -0.27784754       1.10442499
C       -0.62947452       0.94239952       1.04938673
O       -0.16547389       1.62798844      -0.08840407
C       -0.76423320       0.49311302      -0.67225261
H        1.76526696       0.14328676      -1.10822412
H       -0.31956636      -1.63289661      -0.50340662
H       -0.04444046      -1.04215485       1.79518208
H        1.31067019       0.03812224       1.39601172
H       -1.69591429       0.38151057       0.19783166
H       -1.26760959       0.70512645      -1.61085080
12
Frame=4 idx=000931 GeodesicLength=0.2011479312384137 rxn_smarts="[O:1]([C@@:2]1([H:8])[C:3]([H:9])([H:10])[C@@:4]2([H:11])[O:5][C@@:6]12[H:12])[H:7]>>[O:1]([C@@:2]1([H:8])[C:3]([H:9])([H:10])[C-:4]=[O+:5][C:6]1([H:11])[H:12])[H:7]"
O        1.32872641      -0.70550904      -1.17528545
C        0.17507148      -0.66920717      -0.38599046
C        0.31244974      -0.27789534       1.10340288
C       -0.62022581       0.94345358       1.04723712
O       -0.16997246       1.62851799      -0.09095937
C       -0.76939589       0.48857685      -0.67180706
H        1.76513432       0.14809093      -1.10566382
H       -0.31456999      -1.63569033      -0.50434837
H       -0.05048371      -1.03888316       1.79314517
H        1.31670737       0.02747815       1.39867984
H       -1.71238831       0.39279175       0.20840723
H       -1.26105312       0.69827579      -1.61681770
12
Frame=5 idx=000931 GeodesicLength=0.25142837259565604 rxn_smarts="[O:1]([C@@:2]1([H:8])[C:3]([H:9])([H:10])[C@@:4]2([H:11])[O:5][C@@:6]12[H:12])[H:7]>>[O:1]([C@@:2]1([H:8])[C:3]([H:9])([H:10])[C-:4]=[O+:5][C:6]1([H:11])[H:12])[H:7]"
O        1.32981663      -0.70095689      -1.17605209
C        0.17561311      -0.66980344      -0.38685106
C        0.31642513      -0.27798001       1.10234837
C       -0.61102521       0.94444070       1.04491964
O       -0.17451832       1.62896542      -0.09358673
C       -0.77459994       0.48390500      -0.67136518
H        1.76502240       0.15296730      -1.10306831
H       -0.30941490      -1.63853415      -0.50536206
H       -0.05651562      -1.03555998       1.79103185
H        1.32260946       0.01668716       1.40138946
H       -1.72887863       0.40462728       0.21921831
H       -1.25453411       0.69124160      -1.62262222
12
Frame=6 idx=000931 GeodesicLength=0.30172162687072385 rxn_smarts="[O:1]([C@@:2]1([H:8])[C:3]([H:9])([H:10])[C@@:4]2([H:11])[O:5][C@@:6]12[H:12])[H:7]>>[O:1]([C@@:2]1([H:8])[C:3]([H:9])([H:10])[C-:4]=[O+:5][C:6]1([H:11])[H:12])[H:7]"
O        1.33098719      -0.69634096      -1.17682592
C        0.17623232      -0.67043825      -0.38775590
C        0.32038143      -0.27810195       1.10126115
C       -0.60187338       0.94535759       1.04243107
O       -0.17911567       1.62932728      -0.09628570
C       -0.77984420       0.47909302      -0.67092735
H        1.76493206       0.15791814      -1.10043465
H       -0.30409476      -1.64142992      -0.50644976
H       -0.06253671      -1.03218675       1.78884025
H        1.32837180       0.00574865       1.40414047
H       -1.74537982       0.41703289       0.23026754
H       -1.24806025       0.68402027      -1.62826123
12
Frame=7 idx=000931 GeodesicLength=0.3520243036570604 rxn_smarts="[O:1]([C@@:2]1([H:8])[C:3]([H:9])([H:10])[C@@:4]2([H:11])[O:5][C@@:6]12[H:12])[H:7]>>[O:1]([C@@:2]1([H:8])[C:3]([H:9])([H:10])[C-:4]=[O+:5][C:6]1([H:11])[H:12])[H:7]"
O        1.33223941      -0.69165971      -1.17760646
C        0.17693101      -0.67111316      -0.38870575
C        0.32431781      -0.27826190       1.10014147
C       -0.59277564       0.94620095       1.03977159
O       -0.18376681       1.62960017      -0.09905554
C       -0.78512740       0.47413642      -0.67049342
H        1.76486378       0.16294456      -1.09776009
H       -0.29860439      -1.64437920      -0.50761268
H       -0.06854449      -1.02876729       1.78656870
H        1.33399010      -0.00533467       1.40693250
H       -1.76188254       0.43002328       0.24155261
H       -1.24164083       0.67661055      -1.63373293
12
Frame=8 idx=000931 GeodesicLength=0.40234274108624973 rxn_smarts="[O:1]([C@@:2]1([H:8])[C:3]([H:9])([H:10])[C@@:4]2([H:11])[O:5][C@@:6]12[H:12])[H:7]>>[O:1]([C@@:2]1([H:8])[C:3]([H:9])([H:10])[C-:4]=[O+:5][C:6]1([H:11])[H:12])[H:7]"
O        1.33357573      -0.68691105      -1.17839355
C        0.17771199      -0.67182980      -0.38970207
C        0.32823411      -0.27846057       1.09898900
C       -0.58373720       0.94696594       1.03693911
O       -0.18847521       1.62978035      -0.10189541
C       -0.79044744       0.46903036      -0.67006406
H        1.76481853       0.16804820      -1.09504202
H       -0.29293759      -1.64738392      -0.50885279
H       -0.07453864      -1.02530444       1.78421510
H        1.33945883      -0.01656084       1.40976542
H       -1.77837796       0.44361642       0.25307613
H       -1.23528516       0.66900934      -1.63903487
12
Frame=9 idx=000931 GeodesicLength=0.4526698493690426 rxn_smarts="[O:1]([C@@:2]1([H:8])[C:3]([H:9])([H:10])[C@@:4]2([H:11])[O:5][C@@:6]12[H:12])[H:7]>>[O:1]([C@@:2]1([H:8])[C:3]([H:9])([H:10])[C-:4]=[O+:5][C:6]1([H:11])[H:12])[H:7]"
O        1.33499731      -0.68209321      -1.17918676
C        0.17857724      -0.67258978      -0.39074549
C        0.33212996      -0.27869903       1.09780408
C       -0.57476502       0.94764858       1.03393452
O       -0.19324355       1.62986419      -0.10480396
C       -0.79580293       0.46376993      -0.66963898
H        1.76479631       0.17323025      -1.09227795
H       -0.28708900      -1.65044558      -0.51017121
H       -0.08051580      -1.02180299       1.78177787
H        1.34477332      -0.02792641       1.41263894
H       -1.79485510       0.45782918       0.26483433
H       -1.22900273       0.66121488      -1.64416539
12
Frame=10 idx=000931 GeodesicLength=0.5030076676224599 rxn_smarts="[O:1]([C@@:2]1([H:8])[C:3]([H:9])([H:10])[C@@:4]2([H:11])[O:5][C@@:6]12[H:12])[H:7]>>[O:1]([C@@:2]1([H:8])[C:3]([H:9])([H:10])[C-:4]=[O+:5][C:6]1([H:11])[H:12])[H:7]"
O        1.33650537      -0.67720477      -1.17998553
C        0.17952874      -0.67339452      -0.39183692
C        0.33600461      -0.27897771       1.09658681
C       -0.56586633       0.94824500       1.03075847
O       -0.19807481       1.62984825      -0.10777967
C       -0.80119135       0.45835082      -0.66921903
H        1.76479748       0.17849145      -1.08946522
H       -0.28105385      -1.65356530      -0.51156932
H       -0.08647296      -1.01826758       1.77925505
H        1.34992886      -0.03942745       1.41555256
H       -1.81130359       0.47267598       0.27682769
H       -1.22280217       0.65322583      -1.64912490
12
Frame=11 idx=000931 GeodesicLength=0.553364041823472 rxn_smarts="[O:1]([C@@:2]1([H:8])[C:3]([H:9])([H:10])[C@@:4]2([H:11])[O:5][C@@:6]12[H:12])[H:7]>>[O:1]([C@@:2]1([H:8])[C:3]([H:9])([H:10])[C-:4]=[O+:5][C:6]1([H:11])[H:12])[H:7]"
O        1.33810200      -0.67224328      -1.18078927
C        0.18056890      -0.67424565      -0.39297758
C        0.33985710      -0.27929718       1.09533713
C       -0.55704552       0.94874952       1.02740826
O       -0.20297364       1.62972872      -0.11082054
C       -0.80661012       0.45276837      -0.66880502
H        1.76482241       0.18383363      -1.08660083
H       -0.27482595      -1.65674446      -0.51304920
H       -0.09240951      -1.01470093       1.77664482
H        1.35492014      -0.05106168       1.41850566
H       -1.82771320       0.48817382       0.28905768
H       -1.21669261       0.64503911      -1.65391113
12
Frame=12 idx=000931 GeodesicLength=0.6037352229295856 rxn_smarts="[O:1]([C@@:2]1([H:8])[C:3]([H:9])([H:10])[C@@:4]2([H:11])[O:5][C@@:6]12[H:12])[H:7]>>[O:1]([C@@:2]1([H:8])[C:3]([H:9])([H:10])[C-:4]=[O+:5][C:6]1([H:11])[H:12])[H:7]"
O        1.33978813      -0.66720713      -1.18159744
C        0.18169972      -0.67514482      -0.39416837
C        0.34368709      -0.27965841       1.09405502
C       -0.54831181       0.94915743       1.02388485
O       -0.20794421       1.62950146      -0.11392431
C       -0.81205689       0.44701767      -0.66839812
H        1.76487062       0.18925803      -1.08368265
H       -0.26840041      -1.65998430      -0.51461232
H       -0.09832321      -1.01110797       1.77394539
H        1.35974220      -0.06282393       1.42149753
H       -1.84406985       0.50433869       0.30152599
H       -1.21068138       0.63665328      -1.65852557
12
Frame=13 idx=000931 GeodesicLength=0.6541120786713611 rxn_smarts="[O:1]([C@@:2]1([H:8])[C:3]([H:9])([H:10])[C@@:4]2([H:11])[O:5][C@@:6]12[H:12])[H:7]>>[O:1]([C@@:2]1([H:8])[C:3]([H:9])([H:10])[C-:4]=[O+:5][C:6]1([H:11])[H:12])[H:7]"
O        1.34156408      -0.66209464      -1.18240921
C        0.18292261      -0.67609347      -0.39540985
C        0.34749361      -0.28006202       1.09274099
C       -0.53967517       0.94946339       1.02018998
O       -0.21298991       1.62916266      -0.11708872
C       -0.81752943       0.44109424      -0.66799868
H        1.76494139       0.19476545      -1.08070823
H       -0.26177286      -1.66328554      -0.51625983
H       -0.10420904      -1.00749499       1.77115519
H        1.36439014      -0.07470838       1.42452726
H       -1.86035928       0.52118636       0.31423040
H       -1.20477615       0.62806696      -1.66296929
12
Frame=14 idx=000931 GeodesicLength=0.7044873600189716 rxn_smarts="[O:1]([C@@:2]1([H:8])[C:3]([H:9])([H:10])[C@@:4]2([H:11])[O:5][C@@:6]12[H:12])[H:7]>>[O:1]([C@@:2]1([H:8])[C:3]([H:9])([H:10])[C-:4]=[O+:5][C:6]1([H:11])[H:12])[H:7]"
O        1.34343000      -0.65690410      -1.18322378
C        0.18423884      -0.67709294      -0.39670250
C        0.35127597      -0.28050859       1.09139543
C       -0.53114491       0.94966263       1.01632535
O       -0.21811528       1.62870852      -0.12031086
C       -0.82302552       0.43499346      -0.66760757
H        1.76503333       0.20035700      -1.07767555
H       -0.25493921      -1.66664888      -0.51799272
H       -0.11006315      -1.00386790       1.76827295
H        1.36885928      -0.08670934       1.42759377
H       -1.87656635       0.53873098       0.32716954
H       -1.19898300       0.61927916      -1.66724405
12
Frame=15 idx=000931 GeodesicLength=0.7548617715750963 rxn_smarts="[O:1]([C@@:2]1([H:8])[C:3]([H:9])([H:10])[C@@:4]2([H:11])[O:5][C@@:6]12[H:12])[H:7]>>[O:1]([C@@:2]1([H:8])[C:3]([H:9])([H:10])[C-:4]=[O+:5][C:6]1([H:11])[H:12])[H:7]"
O        1.34538681      -0.65163331      -1.18404018
C        0.18565038      -0.67814500      -0.39804719
C        0.35503298      -0.28099878       1.09001843
C       -0.52273005       0.94974868       1.01229079
O       -0.22332627       1.62813464      -0.12358777
C       -0.82854231       0.42871013      -0.66722644
H        1.76514537       0.20603444      -1.07458216
H       -0.24789422      -1.67007534      -0.51981274
H       -0.11588288      -1.00023189       1.76529688
H        1.37314458      -0.09882142       1.43069611
H       -1.89267618       0.55699011       0.34034646
H       -1.19330821       0.61028774      -1.67135221
12
Frame=16 idx=000931 GeodesicLength=0.8052207422635586 rxn_smarts="[O:1]([C@@:2]1([H:8])[C:3]([H:9])([H:10])[C@@:4]2([H:11])[O:5][C@@:6]12[H:12])[H:7]>>[O:1]([C@@:2]1([H:8])[C:3]([H:9])([H:10])[C-:4]=[O+:5][C:6]1([H:11])[H:12])[H:7]"
O        1.34743410      -0.64628070      -1.18485733
C        0.18715807      -0.67925102      -0.39944436
C        0.35876346      -0.28153315       1.08861039
C       -0.51444332       0.94971559       1.00808881
O       -0.22862753       1.62743697      -0.12691645
C       -0.83407754       0.42223971      -0.66685655
H        1.76527550       0.21179855      -1.07142621
H       -0.24063436      -1.67356523      -0.52172100
H       -0.12166357      -0.99659427       1.76222572
H        1.37724124      -0.11103648       1.43383290
H       -1.90866974       0.57597798       0.35376123
H       -1.18775630       0.60109205      -1.67529715
