11
Frame=0 idx=003061 GeodesicLength=0.0 rxn_smarts="[O:1]([C@@:2]1([H:8])[C:3]([H:9])([H:10])[C@:4]1([C:5]#[N:6])[H:11])[H:7]>>[O:1]=[C:2]([C:3]([C:4]([C:5]#[N:6])([H:7])[H:11])([H:9])[H:10])[H:8]"
O       -0.96003856       1.52237701      -0.29368984
C       -1.29429636       0.29937204      -0.41730650
C       -0.32301040      -0.80863105      -0.30564289
C        0.65071254      -0.42435112       0.75010005
C        1.84321141       0.20025811       0.39532310
N        2.81296749       0.74207792       0.04805427
H       -0.00130879       1.52855475      -0.03069625
H       -2.36847030       0.16510796      -0.54890002
H       -0.88478054      -1.72273039      -0.09203611
H        0.14122689      -0.95367623      -1.29315185
H        0.38378657      -0.54835900       1.78794600
11
Frame=1 idx=003061 GeodesicLength=0.10118260844232846 rxn_smarts="[O:1]([C@@:2]1([H:8])[C:3]([H:9])([H:10])[C@:4]1([C:5]#[N:6])[H:11])[H:7]>>[O:1]=[C:2]([C:3]([C:4]([C:5]#[N:6])([H:7])[H:11])([H:9])[H:10])[H:8]"
O       -0.96456741       1.52247864      -0.31383200
C       -1.29538223       0.29480662      -0.41014218
C       -0.31970291      -0.81119233      -0.32021738
C        0.62786228      -0.38757561       0.74564481
C        1.84684776       0.19230878       0.39584009
N        2.82853503       0.71098473       0.05027861
H        0.00236275       1.52938268      -0.00791369
H       -2.37130443       0.14745520      -0.51333705
H       -0.86616015      -1.73260164      -0.10187763
H        0.14835200      -0.94072725      -1.30676280
H        0.36315729      -0.52531980       1.78231923
11
Frame=2 idx=003061 GeodesicLength=0.20237032956442358 rxn_smarts="[O:1]([C@@:2]1([H:8])[C:3]([H:9])([H:10])[C@:4]1([C:5]#[N:6])[H:11])[H:7]>>[O:1]=[C:2]([C:3]([C:4]([C:5]#[N:6])([H:7])[H:11])([H:9])[H:10])[H:8]"
O       -0.96998438       1.52233296      -0.33253639
C       -1.29638915       0.29043373      -0.40342325
C       -0.31630621      -0.81315997      -0.33417803
C        0.60612117      -0.35169522       0.73981771
C        1.84957841       0.18471860       0.39673379
N        2.84341152       0.67954503       0.05443923
H        0.00583941       1.53110050       0.01235407
H       -2.37314917       0.12999896      -0.47808689
H       -0.84720908      -1.74154425      -0.11037942
H        0.15445754      -0.92830579      -1.31996478
H        0.34362995      -0.50342455       1.77522396
11
Frame=3 idx=003061 GeodesicLength=0.30356279259321084 rxn_smarts="[O:1]([C@@:2]1([H:8])[C:3]([H:9])([H:10])[C@:4]1([C:5]#[N:6])[H:11])[H:7]>>[O:1]=[C:2]([C:3]([C:4]([C:5]#[N:6])([H:7])[H:11])([H:9])[H:10])[H:8]"
O       -0.97652350       1.52202377      -0.34968898
C       -1.29741398       0.28620861      -0.39683813
C       -0.31285950      -0.81456787      -0.34753432
C        0.58550036      -0.31672900       0.73277486
C        1.85152831       0.17746341       0.39783961
N        2.85770705       0.64752075       0.06026645
H        0.00928909       1.53360392       0.03055166
H       -2.37403588       0.11256504      -0.44372197
H       -0.82787138      -1.74965394      -0.11767835
H        0.15953530      -0.91622313      -1.33282364
H        0.32514412      -0.48221156       1.76685282
11
Frame=4 idx=003061 GeodesicLength=0.40475803410652356 rxn_smarts="[O:1]([C@@:2]1([H:8])[C:3]([H:9])([H:10])[C@:4]1([C:5]#[N:6])[H:11])[H:7]>>[O:1]=[C:2]([C:3]([C:4]([C:5]#[N:6])([H:7])[H:11])([H:9])[H:10])[H:8]"
O       -0.98429522       1.52161446      -0.36541323
C       -1.29849376       0.28209841      -0.39028706
C       -0.30937938      -0.81544890      -0.36036634
C        0.56595206      -0.28265813       0.72464566
C        1.85279661       0.17052120       0.39909017
N        2.87146069       0.61477563       0.06763519
H        0.01288098       1.53681436       0.04694947
H       -2.37404372       0.09501682      -0.41020064
H       -0.80810630      -1.75700624      -0.12398807
H        0.16365945      -0.90435088      -1.34543086
H        0.30756862      -0.46137672       1.75736569
11
Frame=5 idx=003061 GeodesicLength=0.5059763089629263 rxn_smarts="[O:1]([C@@:2]1([H:8])[C:3]([H:9])([H:10])[C@:4]1([C:5]#[N:6])[H:11])[H:7]>>[O:1]=[C:2]([C:3]([C:4]([C:5]#[N:6])([H:7])[H:11])([H:9])[H:10])[H:8]"
O       -0.99333820       1.52111587      -0.38005255
C       -1.29965219       0.27806021      -0.38374022
C       -0.30584869      -0.81581844      -0.37279084
C        0.54740004      -0.24942110       0.71552692
C        1.85343460       0.16394603       0.40047726
N        2.88471783       0.58102607       0.07643991
H        0.01663922       1.54069639       0.06188786
H       -2.37323320       0.07724054      -0.37718509
H       -0.78780638      -1.76366579      -0.12955931
H        0.16695543      -0.89253777      -1.35788685
H        0.29073153      -0.44064201       1.74688291
11
Frame=6 idx=003061 GeodesicLength=0.6071936812542289 rxn_smarts="[O:1]([C@@:2]1([H:8])[C:3]([H:9])([H:10])[C@:4]1([C:5]#[N:6])[H:11])[H:7]>>[O:1]=[C:2]([C:3]([C:4]([C:5]#[N:6])([H:7])[H:11])([H:9])[H:10])[H:8]"
O       -1.00359868       1.52053195      -0.39375186
C       -1.30088739       0.27408642      -0.37703002
C       -0.30232745      -0.81574226      -0.38481111
C        0.52984795      -0.21702651       0.70549358
C        1.85355122       0.15765728       0.40182378
N        2.89738688       0.54644825       0.08661244
H        0.02065401       1.54519361       0.07574668
H       -2.37164272       0.05924684      -0.34499421
H       -0.76704224      -1.76966814      -0.13440653
H        0.16935858      -0.88081124      -1.37021713
H        0.27469984      -0.41991621       1.73553438
11
Frame=7 idx=003061 GeodesicLength=0.7083893516359172 rxn_smarts="[O:1]([C@@:2]1([H:8])[C:3]([H:9])([H:10])[C@:4]1([C:5]#[N:6])[H:11])[H:7]>>[O:1]=[C:2]([C:3]([C:4]([C:5]#[N:6])([H:7])[H:11])([H:9])[H:10])[H:8]"
O       -1.01502438       1.51985440      -0.40661888
C       -1.30219137       0.27017632      -0.37003782
C       -0.29888091      -0.81528401      -0.39644819
C        0.51329122      -0.18546983       0.69458921
C        1.85324796       0.15154360       0.40293681
N        2.90940734       0.51128750       0.09823552
H        0.02505025       1.55024673       0.08873503
H       -2.36933566       0.04105265      -0.31378465
H       -0.74589864      -1.77504181      -0.13855964
H        0.17079105      -0.86922242      -1.38246178
H        0.25954312      -0.39914313       1.72341440
11
Frame=8 idx=003061 GeodesicLength=0.8095880758012092 rxn_smarts="[O:1]([C@@:2]1([H:8])[C:3]([H:9])([H:10])[C@:4]1([C:5]#[N:6])[H:11])[H:7]>>[O:1]=[C:2]([C:3]([C:4]([C:5]#[N:6])([H:7])[H:11])([H:9])[H:10])[H:8]"
O       -1.02752593       1.51902139      -0.41924242
C       -1.30349109       0.26629742      -0.36304814
C       -0.29538328      -0.81441941      -0.40783823
C        0.49755220      -0.15460750       0.68295308
C        1.85245092       0.14590317       0.40416951
N        2.92061417       0.47494560       0.11075860
H        0.02957920       1.55591796       0.10133874
H       -2.36622694       0.02264416      -0.28276626
H       -0.72417993      -1.77979382      -0.14231786
H        0.17166093      -0.85763148      -1.39462356
H        0.24494975      -0.37827748       1.71061655
11
Frame=9 idx=003061 GeodesicLength=0.9107902631395662 rxn_smarts="[O:1]([C@@:2]1([H:8])[C:3]([H:9])([H:10])[C@:4]1([C:5]#[N:6])[H:11])[H:7]>>[O:1]=[C:2]([C:3]([C:4]([C:5]#[N:6])([H:7])[H:11])([H:9])[H:10])[H:8]"
O       -1.04107187       1.51802011      -0.43157739
C       -1.30480286       0.26245149      -0.35588872
C       -0.29193184      -0.81322690      -0.41898342
C        0.48264978      -0.12442655       0.67058149
C        1.85128301       0.14059173       0.40522263
N        2.93101788       0.43778059       0.12445858
H        0.03440873       1.56216845       0.11361548
H       -2.36239161       0.00404970      -0.25222600
H       -0.70202020      -1.78396778      -0.14564024
H        0.17179011      -0.84613819      -1.40677000
H        0.23106887      -0.35730264       1.69720759
11
Frame=10 idx=003061 GeodesicLength=1.0119611390151604 rxn_smarts="[O:1]([C@@:2]1([H:8])[C:3]([H:9])([H:10])[C@:4]1([C:5]#[N:6])[H:11])[H:7]>>[O:1]=[C:2]([C:3]([C:4]([C:5]#[N:6])([H:7])[H:11])([H:9])[H:10])[H:8]"
O       -1.05566157       1.51681150      -0.44355193
C       -1.30613200       0.25865558      -0.34839424
C       -0.28863689      -0.81176688      -0.42988879
C        0.46862540      -0.09494030       0.65740188
C        1.84984704       0.13533284       0.40569916
N        2.94059686       0.40029882       0.13988491
H        0.03976713       1.56889851       0.12545902
H       -2.35788848      -0.01467622      -0.22232674
H       -0.67954398      -1.78755729      -0.14848649
H        0.17091329      -0.83484257      -1.41895774
H        0.21811320      -0.33621400       1.68316097
11
Frame=11 idx=003061 GeodesicLength=1.113149592621244 rxn_smarts="[O:1]([C@@:2]1([H:8])[C:3]([H:9])([H:10])[C@:4]1([C:5]#[N:6])[H:11])[H:7]>>[O:1]=[C:2]([C:3]([C:4]([C:5]#[N:6])([H:7])[H:11])([H:9])[H:10])[H:8]"
O       -1.07122377       1.51530912      -0.45574416
C       -1.30738834       0.25486322      -0.34093374
C       -0.28528619      -0.80997888      -0.44064823
C        0.45525531      -0.06593302       0.64362925
C        1.84801733       0.13071254       0.40623007
N        2.94908565       0.36144103       0.15594959
H        0.04521536       1.57626133       0.13753821
H       -2.35253932      -0.03356033      -0.19241236
H       -0.65645986      -1.79055158      -0.15112195
H        0.16964654      -0.82355859      -1.43110084
H        0.20567729      -0.31500484       1.66861417
11
Frame=12 idx=003061 GeodesicLength=1.2143326013840507 rxn_smarts="[O:1]([C@@:2]1([H:8])[C:3]([H:9])([H:10])[C@:4]1([C:5]#[N:6])[H:11])[H:7]>>[O:1]=[C:2]([C:3]([C:4]([C:5]#[N:6])([H:7])[H:11])([H:9])[H:10])[H:8]"
O       -1.08771216       1.51349761      -0.46800433
C       -1.30857694       0.25110195      -0.33331509
C       -0.28202524      -0.80796610      -0.45125243
C        0.44260190      -0.03745412       0.62918296
C        1.84593403       0.12640387       0.40636561
N        2.95648166       0.32193814       0.17323612
H        0.05105420       1.58416901       0.14975680
H       -2.34643178      -0.05251759      -0.16277953
H       -0.63300115      -1.79298649      -0.15346560
H        0.16767480      -0.81247369      -1.44328308
H        0.19400068      -0.29371258       1.65355857
11
Frame=13 idx=003061 GeodesicLength=1.315504439488774 rxn_smarts="[O:1]([C@@:2]1([H:8])[C:3]([H:9])([H:10])[C@:4]1([C:5]#[N:6])[H:11])[H:7]>>[O:1]=[C:2]([C:3]([C:4]([C:5]#[N:6])([H:7])[H:11])([H:9])[H:10])[H:8]"
O       -1.10518304       1.51132191      -0.48028363
C       -1.30971305       0.24737718      -0.32544889
C       -0.27893294      -0.80576209      -0.46174816
C        0.43068603      -0.00948088       0.61395643
C        1.84366728       0.12221196       0.40576476
N        2.96280142       0.28209945       0.19234061
H        0.05746675       1.59255018       0.16197479
H       -2.33958058      -0.07152305      -0.13332926
H       -0.60923022      -1.79485586      -0.15555282
H        0.16478474      -0.80163782      -1.45559454
H        0.18323360      -0.27230098       1.63792072
11
Frame=14 idx=003061 GeodesicLength=1.4167081765838834 rxn_smarts="[O:1]([C@@:2]1([H:8])[C:3]([H:9])([H:10])[C@:4]1([C:5]#[N:6])[H:11])[H:7]>>[O:1]=[C:2]([C:3]([C:4]([C:5]#[N:6])([H:7])[H:11])([H:9])[H:10])[H:8]"
O       -1.12359261       1.50867725      -0.49303656
C       -1.31070369       0.24364251      -0.31764279
C       -0.27577460      -0.80329777      -0.47215266
C        0.41930600       0.01821143       0.59818091
C        1.84110850       0.11878881       0.40509322
N        2.96765317       0.24076505       0.21198247
H        0.06400672       1.60157077       0.17488947
H       -2.33178348      -0.09061099      -0.10376150
H       -0.58482914      -1.79612724      -0.15752663
H        0.16159723      -0.79087950      -1.46788219
H        0.17301191      -0.25074032       1.62185626
11
Frame=15 idx=003061 GeodesicLength=1.5179065395150302 rxn_smarts="[O:1]([C@@:2]1([H:8])[C:3]([H:9])([H:10])[C@:4]1([C:5]#[N:6])[H:11])[H:7]>>[O:1]=[C:2]([C:3]([C:4]([C:5]#[N:6])([H:7])[H:11])([H:9])[H:10])[H:8]"
O       -1.14291641       1.50555775      -0.50597116
C       -1.31158135       0.23996098      -0.30960976
C       -0.27283224      -0.80072307      -0.48250742
C        0.40861855       0.04546302       0.58157891
C        1.83844678       0.11541892       0.40344563
N        2.97120251       0.19937789       0.23366505
H        0.07123731       1.61102110       0.18811620
H       -2.32317117      -0.10962503      -0.07422006
H       -0.56021224      -1.79685303      -0.15932579
H        0.15743207      -0.78050430      -1.48036485
H        0.16377620      -0.22909422       1.60519326
11
Frame=16 idx=003061 GeodesicLength=1.6191393181356855 rxn_smarts="[O:1]([C@@:2]1([H:8])[C:3]([H:9])([H:10])[C@:4]1([C:5]#[N:6])[H:11])[H:7]>>[O:1]=[C:2]([C:3]([C:4]([C:5]#[N:6])([H:7])[H:11])([H:9])[H:10])[H:8]"
O       -1.16311852       1.50182554      -0.51953541
C       -1.31224040       0.23628545      -0.30165915
C       -0.26983173      -0.79795149      -0.49277392
C        0.39842044       0.07251605       0.56440962
C        1.83557251       0.11283462       0.40158459
N        2.97293967       0.15663919       0.25584805
H        0.07866026       1.62105175       0.20243798
H       -2.31352372      -0.12858901      -0.04458809
H       -0.53501377      -1.79696223      -0.16101273
H        0.15297871      -0.77033724      -1.49280746
H        0.15515656      -0.20731265       1.58809653
