14
Frame=0 idx=000179 GeodesicLength=0.0 rxn_smarts="[C:1]([C:2]([O:3][C:4]([C:5](=[O:6])[H:14])([H:12])[H:13])([H:10])[H:11])([H:7])([H:8])[H:9]>>[C:1]([C:2]([O:3][C:4](=[C:5]=[O:6])[H:12])([H:10])[H:11])([H:7])([H:8])[H:9].[H:13][H:14]"
C       -2.11380737      -0.35172233      -0.57461951
C       -0.62021974      -0.32196337      -0.35970938
O       -0.32780956       0.70070736       0.56394437
C        0.93923162       0.94156595       0.93731496
C        2.11785513       0.34244197       0.56923511
O        3.31243629       0.44967208       0.81681213
H       -2.46364910       0.60279657      -0.96805894
H       -2.63198217      -0.55208669       0.36320505
H       -2.37020316      -1.13555801      -1.28828964
H       -0.25941557      -1.28607709       0.03118832
H       -0.09103906      -0.12853219      -1.30580230
H        0.99655092       1.75463733       1.65027228
H        1.80127820      -0.19563716      -0.57662603
H        1.71077359      -0.82024442       0.14113354
14
Frame=1 idx=000179 GeodesicLength=0.11324107037756204 rxn_smarts="[C:1]([C:2]([O:3][C:4]([C:5](=[O:6])[H:14])([H:12])[H:13])([H:10])[H:11])([H:7])([H:8])[H:9]>>[C:1]([C:2]([O:3][C:4](=[C:5]=[O:6])[H:12])([H:10])[H:11])([H:7])([H:8])[H:9].[H:13][H:14]"
C       -2.12042003      -0.35794029      -0.56499342
C       -0.62527765      -0.32199752      -0.36107089
O       -0.32993710       0.68847505       0.57457997
C        0.94480424       0.96038169       0.90330754
C        2.12372796       0.31644112       0.61692773
O        3.30850947       0.39933068       0.90490465
H       -2.47921456       0.60032945      -0.94111481
H       -2.63013689      -0.57593948       0.37360160
H       -2.37748204      -1.13261849      -1.28856031
H       -0.25686704      -1.28828756       0.01663761
H       -0.10552522      -0.11444274      -1.30925147
H        1.00134272       1.80377627       1.58158801
H        1.81485675      -0.14890637      -0.59796472
H        1.73161941      -0.82860182       0.09140851
14
Frame=2 idx=000179 GeodesicLength=0.22647905609503655 rxn_smarts="[C:1]([C:2]([O:3][C:4]([C:5](=[O:6])[H:14])([H:12])[H:13])([H:10])[H:11])([H:7])([H:8])[H:9]>>[C:1]([C:2]([O:3][C:4](=[C:5]=[O:6])[H:12])([H:10])[H:11])([H:7])([H:8])[H:9].[H:13][H:14]"
C       -2.12657364      -0.36368250      -0.55491662
C       -0.62991620      -0.32174498      -0.36249247
O       -0.33062476       0.67880750       0.58249067
C        0.95052431       0.97647678       0.86958094
C        2.12437239       0.29032926       0.66314750
O        3.29729128       0.35010922       0.99193023
H       -2.49385851       0.59742067      -0.91551379
H       -2.62742732      -0.59701937       0.38483515
H       -2.38510893      -1.13048091      -1.28653053
H       -0.25417037      -1.28975656       0.00286334
H       -0.11977514      -0.10254220      -1.31314943
H        1.00811473       1.84664644       1.51417635
H        1.83055924      -0.10119243      -0.61789356
H        1.75659293      -0.83337092       0.04147221
14
Frame=3 idx=000179 GeodesicLength=0.3386716444308673 rxn_smarts="[C:1]([C:2]([O:3][C:4]([C:5](=[O:6])[H:14])([H:12])[H:13])([H:10])[H:11])([H:7])([H:8])[H:9]>>[C:1]([C:2]([O:3][C:4](=[C:5]=[O:6])[H:12])([H:10])[H:11])([H:7])([H:8])[H:9].[H:13][H:14]"
C       -2.13165224      -0.36887101      -0.54458105
C       -0.63401025      -0.32103020      -0.36393823
O       -0.33005253       0.67261225       0.58655744
C        0.95619995       0.98944329       0.83682295
C        2.11998057       0.26500861       0.70651754
O        3.27883014       0.30261481       1.07541671
H       -2.50688153       0.59373383      -0.89250467
H       -2.62323675      -0.61448736       0.39692082
H       -2.39220967      -1.12953261      -1.28169771
H       -0.25145009      -1.28985490      -0.00897873
H       -0.13366786      -0.09319860      -1.31757388
H        1.01638223       1.88119985       1.45121452
H        1.84693405      -0.05343965      -0.63696538
H        1.78483395      -0.83419831      -0.00721031
14
Frame=4 idx=000179 GeodesicLength=0.45198586272351243 rxn_smarts="[C:1]([C:2]([O:3][C:4]([C:5](=[O:6])[H:14])([H:12])[H:13])([H:10])[H:11])([H:7])([H:8])[H:9]>>[C:1]([C:2]([O:3][C:4](=[C:5]=[O:6])[H:12])([H:10])[H:11])([H:7])([H:8])[H:9].[H:13][H:14]"
C       -2.13694959      -0.37369209      -0.53460641
C       -0.63802425      -0.32016484      -0.36560570
O       -0.32875924       0.67042567       0.58679654
C        0.96254885       1.00045292       0.80538407
C        2.11288530       0.24124867       0.74675034
O        3.25661745       0.25779518       1.15407575
H       -2.51966863       0.58955893      -0.87290868
H       -2.61939547      -0.62819419       0.40926857
H       -2.40009471      -1.13067604      -1.27485408
H       -0.24910413      -1.28927598      -0.01873453
H       -0.14720103      -0.08689404      -1.32270703
H        1.02600947       1.90818447       1.39632444
H        1.86417161      -0.00678063      -0.65567321
H        1.81696437      -0.83198804      -0.05351007
14
Frame=5 idx=000179 GeodesicLength=0.5647918022577934 rxn_smarts="[C:1]([C:2]([O:3][C:4]([C:5](=[O:6])[H:14])([H:12])[H:13])([H:10])[H:11])([H:7])([H:8])[H:9]>>[C:1]([C:2]([O:3][C:4](=[C:5]=[O:6])[H:12])([H:10])[H:11])([H:7])([H:8])[H:9].[H:13][H:14]"
C       -2.14160063      -0.37799765      -0.52476075
C       -0.64177522      -0.31916251      -0.36726346
O       -0.32715262       0.67081511       0.58397924
C        0.96899852       1.00910756       0.77520051
C        2.10285412       0.21872986       0.78393967
O        3.23040552       0.21551936       1.22723591
H       -2.53092839       0.58496841      -0.85584570
H       -2.61536139      -0.63876756       0.42184172
H       -2.40749791      -1.13275472      -1.26616305
H       -0.24737228      -1.28784036      -0.02659754
H       -0.15992545      -0.08287223      -1.32805863
H        1.03619475       1.92862279       1.34771789
H        1.88112195       0.03866444      -0.67435340
H        1.85203902      -0.82703249      -0.09687240
14
Frame=6 idx=000179 GeodesicLength=0.6779013333506821 rxn_smarts="[C:1]([C:2]([O:3][C:4]([C:5](=[O:6])[H:14])([H:12])[H:13])([H:10])[H:11])([H:7])([H:8])[H:9]>>[C:1]([C:2]([O:3][C:4](=[C:5]=[O:6])[H:12])([H:10])[H:11])([H:7])([H:8])[H:9].[H:13][H:14]"
C       -2.14621911      -0.38196863      -0.51527998
C       -0.64549672      -0.31818981      -0.36891551
O       -0.32529515       0.67333256       0.57913617
C        0.97587089       1.01567923       0.74677808
C        2.09081609       0.19704353       0.81903806
O        3.20170400       0.17534486       1.29555675
H       -2.54177238       0.58031408      -0.84098347
H       -2.61146082      -0.64705825       0.43436622
H       -2.41509539      -1.13584362      -1.25657413
H       -0.24603570      -1.28622160      -0.03306058
H       -0.17238022      -0.08066393      -1.33360518
H        1.04747525       1.94464631       1.30391552
H        1.89779568       0.08321760      -0.69309626
H        1.89009358      -0.81963232      -0.13727570
14
Frame=7 idx=000179 GeodesicLength=0.7911089919077953 rxn_smarts="[C:1]([C:2]([O:3][C:4]([C:5](=[O:6])[H:14])([H:12])[H:13])([H:10])[H:11])([H:7])([H:8])[H:9]>>[C:1]([C:2]([O:3][C:4](=[C:5]=[O:6])[H:12])([H:10])[H:11])([H:7])([H:8])[H:9].[H:13][H:14]"
C       -2.15073502      -0.38558989      -0.50606388
C       -0.64922069      -0.31731193      -0.37050597
O       -0.32337173       0.67721627       0.57276177
C        0.98302229       1.02026189       0.71985603
C        2.07694781       0.17593511       0.85240505
O        3.17093862       0.13704262       1.35943126
H       -2.55200373       0.57569526      -0.82770922
H       -2.60777630      -0.65354091       0.44678206
H       -2.42271486      -1.13944139      -1.24630989
H       -0.24525351      -1.28451203      -0.03843212
H       -0.18444946      -0.07993221      -1.33915355
H        1.05959945       1.95706830       1.26371477
H        1.91394251       0.12706514      -0.71215680
H        1.93107462      -0.80995622      -0.17461951
14
Frame=8 idx=000179 GeodesicLength=0.9043245660772324 rxn_smarts="[C:1]([C:2]([O:3][C:4]([C:5](=[O:6])[H:14])([H:12])[H:13])([H:10])[H:11])([H:7])([H:8])[H:9]>>[C:1]([C:2]([O:3][C:4](=[C:5]=[O:6])[H:12])([H:10])[H:11])([H:7])([H:8])[H:9].[H:13][H:14]"
C       -2.15521349      -0.38886452      -0.49710062
C       -0.65299823      -0.31662100      -0.37200722
O       -0.32139121       0.68202806       0.56525490
C        0.99046337       1.02293502       0.69428837
C        2.06143616       0.15515246       0.88446356
O        3.13857294       0.10047639       1.41924292
H       -2.56170296       0.57126149      -0.81572360
H       -2.60434893      -0.65851774       0.45905107
H       -2.43043751      -1.14332917      -1.23561227
H       -0.24505635      -1.28292409      -0.04289235
H       -0.19621969      -0.08052053      -1.34464349
H        1.07253577       1.96646021       1.22629804
H        1.92939230       0.17042588      -0.73175230
H        1.97496783      -0.79796247      -0.20886702
14
Frame=9 idx=000179 GeodesicLength=1.017652479588971 rxn_smarts="[C:1]([C:2]([O:3][C:4]([C:5](=[O:6])[H:14])([H:12])[H:13])([H:10])[H:11])([H:7])([H:8])[H:9]>>[C:1]([C:2]([O:3][C:4](=[C:5]=[O:6])[H:12])([H:10])[H:11])([H:7])([H:8])[H:9].[H:13][H:14]"
C       -2.15971010      -0.39176799      -0.48834777
C       -0.65688668      -0.31619204      -0.37340855
O       -0.31940388       0.68734179       0.55684520
C        0.99816021       1.02372682       0.66986053
C        2.04441804       0.13452074       0.91551334
O        3.10500393       0.06555640       1.47538502
H       -2.57087037       0.56710670      -0.80472344
H       -2.60127852      -0.66218099       0.47113873
H       -2.43832708      -1.14724646      -1.22460101
H       -0.24554118      -1.28156772      -0.04661443
H       -0.20771116      -0.08233720      -1.35000304
H        1.08617351       1.97316056       1.19102675
H        1.94396588       0.21351079      -0.75215291
H        2.02200739      -0.78363141      -0.23991841
14
Frame=10 idx=000179 GeodesicLength=1.1309727665296987 rxn_smarts="[C:1]([C:2]([O:3][C:4]([C:5](=[O:6])[H:14])([H:12])[H:13])([H:10])[H:11])([H:7])([H:8])[H:9]>>[C:1]([C:2]([O:3][C:4](=[C:5]=[O:6])[H:12])([H:10])[H:11])([H:7])([H:8])[H:9].[H:13][H:14]"
C       -2.16429819      -0.39430548      -0.47978644
C       -0.66092436      -0.31610564      -0.37470758
O       -0.31733530       0.69296409       0.54767900
C        1.00618536       1.02265420       0.64641147
C        2.02597603       0.11383255       0.94581661
O        3.07045791       0.03205724       1.52831552
H       -2.57958472       0.56331614      -0.79460993
H       -2.59859246      -0.66461858       0.48307585
H       -2.44651963      -1.15114745      -1.21333941
H       -0.24673388      -1.28060351      -0.04965848
H       -0.21901852      -0.08539387      -1.35524588
H        1.10057076       1.97737762       1.15747153
H        1.95749524       0.25656015      -0.77364957
H        2.07232177      -0.76658747      -0.26777269
14
Frame=11 idx=000179 GeodesicLength=1.24433471192556 rxn_smarts="[C:1]([C:2]([O:3][C:4]([C:5](=[O:6])[H:14])([H:12])[H:13])([H:10])[H:11])([H:7])([H:8])[H:9]>>[C:1]([C:2]([O:3][C:4](=[C:5]=[O:6])[H:12])([H:10])[H:11])([H:7])([H:8])[H:9].[H:13][H:14]"
C       -2.16903125      -0.39645620      -0.47136878
C       -0.66515384      -0.31643242      -0.37591032
O       -0.31515848       0.69866505       0.53780974
C        1.01456818       1.01967305       0.62374004
C        2.00616331       0.09291854       0.97553948
O        3.03507216      -0.00025098       1.57848680
H       -2.58785436       0.55994644      -0.78524201
H       -2.59634766      -0.66586222       0.49489513
H       -2.45511759      -1.15491839      -1.20181776
H       -0.24870839      -1.28012208      -0.05210102
H       -0.23018814      -0.08972476      -1.36036513
H        1.11572615       1.97919932       1.12523886
H        1.96975517       0.29979782      -0.79658438
H        2.12627475      -0.74643318      -0.29232065
14
Frame=12 idx=000179 GeodesicLength=1.3577088648639188 rxn_smarts="[C:1]([C:2]([O:3][C:4]([C:5](=[O:6])[H:14])([H:12])[H:13])([H:10])[H:11])([H:7])([H:8])[H:9]>>[C:1]([C:2]([O:3][C:4](=[C:5]=[O:6])[H:12])([H:10])[H:11])([H:7])([H:8])[H:9].[H:13][H:14]"
C       -2.17395686      -0.39820218      -0.46304746
C       -0.66960693      -0.31725285      -0.37702558
O       -0.31279080       0.70429475       0.52724079
C        1.02338524       1.01470376       0.60165622
C        1.98499527       0.07159511       1.00479755
O        2.99884040      -0.03168285       1.62636289
H       -2.59568682       0.55705607      -0.77655225
H       -2.59456794      -0.66588605       0.50666424
H       -2.46424364      -1.15851241      -1.18998738
H       -0.25152761      -1.28023755      -0.05396816
H       -0.24128414      -0.09542417      -1.36538787
H        1.13172024       1.97863163       1.09400834
H        1.98047655       0.34342183      -0.82132690
H        2.18424704      -0.72250508      -0.31343443
14
Frame=13 idx=000179 GeodesicLength=1.4711023547543494 rxn_smarts="[C:1]([C:2]([O:3][C:4]([C:5](=[O:6])[H:14])([H:12])[H:13])([H:10])[H:11])([H:7])([H:8])[H:9]>>[C:1]([C:2]([O:3][C:4](=[C:5]=[O:6])[H:12])([H:10])[H:11])([H:7])([H:8])[H:9].[H:13][H:14]"
C       -2.17912031      -0.39951252      -0.45476731
C       -0.67431553      -0.31865417      -0.37806619
O       -0.31013945       0.70970834       0.51592501
C        1.03272543       1.00762005       0.57995357
C        1.96248151       0.04967451       1.03364068
O        2.96166416      -0.06261088       1.67238641
H       -2.60307402       0.55470360      -0.76848652
H       -2.59327629      -0.66461398       0.51845904
H       -2.47402957      -1.16187926      -1.17776147
H       -0.25526731      -1.28105914      -0.05527547
H       -0.25237009      -0.10262728      -1.37034214
H        1.14865540       1.97560309       1.06348552
H        1.98932945       0.38757835      -0.84827645
H        2.24673662      -0.69393071      -0.33087469
14
Frame=14 idx=000179 GeodesicLength=1.5845236912058631 rxn_smarts="[C:1]([C:2]([O:3][C:4]([C:5](=[O:6])[H:14])([H:12])[H:13])([H:10])[H:11])([H:7])([H:8])[H:9]>>[C:1]([C:2]([O:3][C:4](=[C:5]=[O:6])[H:12])([H:10])[H:11])([H:7])([H:8])[H:9].[H:13][H:14]"
C       -2.18456987      -0.40034423      -0.44646675
C       -0.67931449      -0.32073586      -0.37905203
O       -0.30708234       0.71477039       0.50376846
C        1.04270268       0.99824805       0.55840350
C        1.93862374       0.02694985       1.06204841
O        2.92335230      -0.09348423       1.71697308
H       -2.60999842       0.55295671      -0.76101169
H       -2.59248928      -0.66192236       0.53037377
H       -2.48463345      -1.16497208      -1.16501955
H       -0.26002238      -1.28270825      -0.05602203
H       -0.26352079      -0.11151712      -1.37527138
H        1.16667795       1.96996657       1.03339422
H        1.99592686       0.43232033      -0.87785123
H        2.31434750      -0.65952777      -0.34426679
14
Frame=15 idx=000179 GeodesicLength=1.697978423764125 rxn_smarts="[C:1]([C:2]([O:3][C:4]([C:5](=[O:6])[H:14])([H:12])[H:13])([H:10])[H:11])([H:7])([H:8])[H:9]>>[C:1]([C:2]([O:3][C:4](=[C:5]=[O:6])[H:12])([H:10])[H:11])([H:7])([H:8])[H:9].[H:13][H:14]"
C       -2.19035616      -0.40063205      -0.43808222
C       -0.68464634      -0.32361800      -0.38000587
O       -0.30347634       0.71932154       0.49065099
C        1.05344528       0.98635343       0.53675037
C        1.91343763       0.00318645       1.08990732
O        2.88366518      -0.12479941       1.76043626
H       -2.61641928       0.55190891      -0.75410830
H       -2.59222571      -0.65763561       0.54250549
H       -2.49623828      -1.16772286      -1.15162042
H       -0.26592140      -1.28533040      -0.05619448
H       -0.27482170      -0.12232608      -1.38022043
H        1.18596019       1.96149482       1.00346231
H        1.99983721       0.47754372      -0.91045261
H        2.38775972      -0.61774447      -0.35302840
14
Frame=16 idx=000179 GeodesicLength=1.8114817041683802 rxn_smarts="[C:1]([C:2]([O:3][C:4]([C:5](=[O:6])[H:14])([H:12])[H:13])([H:10])[H:11])([H:7])([H:8])[H:9]>>[C:1]([C:2]([O:3][C:4](=[C:5]=[O:6])[H:12])([H:10])[H:11])([H:7])([H:8])[H:9].[H:13][H:14]"
C       -2.19654771      -0.40028607      -0.42955195
C       -0.69037246      -0.32744205      -0.38096059
O       -0.29915745       0.72316059       0.47643473
C        1.06509139       0.97164204       0.51469935
C        1.88698273      -0.02187560       1.11698228
O        2.84238433      -0.15708659       1.80292639
H       -2.62228860       0.55168572      -0.74775953
H       -2.59251842      -0.65153883       0.55495054
H       -2.50907481      -1.17002614      -1.13741770
H       -0.27313979      -1.28909723      -0.05577730
H       -0.28638210      -0.13532580      -1.38524360
H        1.20669073       1.94988135       0.97341308
H        2.00065477       0.52289999      -0.94641158
H        2.46767740      -0.56659139      -0.35628411
