12
Frame=0 idx=008056 GeodesicLength=0.0 rxn_smarts="[N:1]#[C:2][C@@:3]1([H:8])[C:4]([H:9])([H:10])[N:5]=[C:6]([H:11])[N:7]1[H:12]>>[N:1]#[C:2][C-:3]1[C:4]([H:9])([H:10])[N:5]=[C:6]([H:11])[N+:7]1([H:8])[H:12]"
N        2.50031486      -1.02249937       1.35281866
C        1.67532986      -0.73387014       0.59762557
C        0.72109356      -0.34957385      -0.37282392
C       -0.63009235      -1.05828084      -0.43917159
N       -1.63985276      -0.13827494       0.11201813
C       -1.14503186       1.00342555       0.23879053
N        0.23903156       1.14227103      -0.11406063
H        0.68699897       0.87487218      -1.11295683
H       -0.93683338      -1.28940915      -1.46218357
H       -0.63499079      -1.99502560       0.12053158
H       -1.67725996       1.88013212       0.58816363
H        0.84129233       1.68623301       0.49124849
12
Frame=1 idx=008056 GeodesicLength=0.04704114079560153 rxn_smarts="[N:1]#[C:2][C@@:3]1([H:8])[C:4]([H:9])([H:10])[N:5]=[C:6]([H:11])[N:7]1[H:12]>>[N:1]#[C:2][C-:3]1[C:4]([H:9])([H:10])[N:5]=[C:6]([H:11])[N+:7]1([H:8])[H:12]"
N        2.49626910      -1.02286411       1.35405894
C        1.67307844      -0.73158002       0.59810880
C        0.71898759      -0.34467562      -0.37322885
C       -0.63026467      -1.05754561      -0.43850140
N       -1.63965620      -0.14043550       0.11787179
C       -1.14504032       1.00198519       0.24085398
N        0.23906805       1.13983387      -0.11342440
H        0.69469007       0.87359148      -1.12365787
H       -0.93862592      -1.28648877      -1.46158011
H       -0.63111100      -1.99545655       0.11905140
H       -1.67740251       1.87988843       0.58713490
H        0.84000736       1.68374721       0.49331281
12
Frame=2 idx=008056 GeodesicLength=0.09407978262400621 rxn_smarts="[N:1]#[C:2][C@@:3]1([H:8])[C:4]([H:9])([H:10])[N:5]=[C:6]([H:11])[N:7]1[H:12]>>[N:1]#[C:2][C-:3]1[C:4]([H:9])([H:10])[N:5]=[C:6]([H:11])[N+:7]1([H:8])[H:12]"
N        2.49223334      -1.02321564       1.35526043
C        1.67081842      -0.72927400       0.59858848
C        0.71686852      -0.33976107      -0.37363378
C       -0.63044049      -1.05678526      -0.43783305
N       -1.63944844      -0.14259809       0.12373251
C       -1.14508078       1.00054474       0.24296211
N        0.23906119       1.13745086      -0.11273129
H        0.70255381       0.87210203      -1.13442429
H       -0.94043562      -1.28353438      -1.46096950
H       -0.62723281      -1.99585729       0.11753819
H       -1.67761629       1.87961946       0.58612195
H        0.83871915       1.68130864       0.49538824
12
Frame=3 idx=008056 GeodesicLength=0.1411104058378786 rxn_smarts="[N:1]#[C:2][C@@:3]1([H:8])[C:4]([H:9])([H:10])[N:5]=[C:6]([H:11])[N:7]1[H:12]>>[N:1]#[C:2][C-:3]1[C:4]([H:9])([H:10])[N:5]=[C:6]([H:11])[N+:7]1([H:8])[H:12]"
N        2.48823444      -1.02355185       1.35639945
C        1.66853820      -0.72695112       0.59908193
C        0.71473379      -0.33482935      -0.37403065
C       -0.63062183      -1.05599906      -0.43716692
N       -1.63924040      -0.14475461       0.12957152
C       -1.14516012       0.99910943       0.24510046
N        0.23900858       1.13512308      -0.11197926
H        0.71060084       0.87038979      -1.14525612
H       -0.94224909      -1.28055725      -1.46035418
H       -0.62336919      -1.99622029       0.11600309
H       -1.67789707       1.87932096       0.58515176
H        0.83742186       1.67892026       0.49747891
12
Frame=4 idx=008056 GeodesicLength=0.18814471483905026 rxn_smarts="[N:1]#[C:2][C@@:3]1([H:8])[C:4]([H:9])([H:10])[N:5]=[C:6]([H:11])[N:7]1[H:12]>>[N:1]#[C:2][C-:3]1[C:4]([H:9])([H:10])[N:5]=[C:6]([H:11])[N+:7]1([H:8])[H:12]"
N        2.48429289      -1.02387036       1.35745808
C        1.66622899      -0.72460980       0.59960206
C        0.71258139      -0.32987843      -0.37441275
C       -0.63081015      -1.05518573      -0.43650359
N       -1.63904147      -0.14689888       0.13536555
C       -1.14528368       0.99768246       0.24726082
N        0.23890825       1.13285133      -0.11116374
H        0.71884001       0.86843885      -1.15615868
H       -0.94405515      -1.27756531      -1.45973644
H       -0.61953045      -1.99653904       0.11445407
H       -1.67824249       1.87898986       0.58424560
H        0.83611186       1.67658505       0.49958902
12
Frame=5 idx=008056 GeodesicLength=0.23516802494952663 rxn_smarts="[N:1]#[C:2][C@@:3]1([H:8])[C:4]([H:9])([H:10])[N:5]=[C:6]([H:11])[N:7]1[H:12]>>[N:1]#[C:2][C-:3]1[C:4]([H:9])([H:10])[N:5]=[C:6]([H:11])[N+:7]1([H:8])[H:12]"
N        2.48040635      -1.02419735       1.35842492
C        1.66390902      -0.72225363       0.60012347
C        0.71041266      -0.32490091      -0.37478526
C       -0.63100229      -1.05434177      -0.43583601
N       -1.63883711      -0.14904550       0.14117129
C       -1.14544514       0.99625438       0.24948712
N        0.23875967       1.13063661      -0.11026260
H        0.72726816       0.86625604      -1.16711978
H       -0.94587640      -1.27453429      -1.45910603
H       -0.61569427      -1.99682265       0.11287695
H       -1.67869092       1.87865373       0.58327844
H        0.83479027       1.67429535       0.50174750
12
Frame=6 idx=008056 GeodesicLength=0.2821896082523185 rxn_smarts="[N:1]#[C:2][C@@:3]1([H:8])[C:4]([H:9])([H:10])[N:5]=[C:6]([H:11])[N:7]1[H:12]>>[N:1]#[C:2][C-:3]1[C:4]([H:9])([H:10])[N:5]=[C:6]([H:11])[N+:7]1([H:8])[H:12]"
N        2.47657267      -1.02450724       1.35931282
C        1.66156345      -0.71987633       0.60066365
C        0.70822562      -0.31989733      -0.37514576
C       -0.63120032      -1.05346798      -0.43517164
N       -1.63864224      -0.15118155       0.14693688
C       -1.14565218       0.99483427       0.25174320
N        0.23856153       1.12848073      -0.10929159
H        0.73589592       0.86381335      -1.17816168
H       -0.94769156      -1.27148400      -1.45847346
H       -0.61187818      -1.99706086       0.11128322
H       -1.67920961       1.87828686       0.58237091
H        0.83345491       1.67206009       0.50393343
12
Frame=7 idx=008056 GeodesicLength=0.32920478304932876 rxn_smarts="[N:1]#[C:2][C@@:3]1([H:8])[C:4]([H:9])([H:10])[N:5]=[C:6]([H:11])[N:7]1[H:12]>>[N:1]#[C:2][C-:3]1[C:4]([H:9])([H:10])[N:5]=[C:6]([H:11])[N+:7]1([H:8])[H:12]"
N        2.47282858      -1.02481350       1.36008161
C        1.65918448      -0.71747786       0.60123811
C        0.70601799      -0.31486405      -0.37548322
C       -0.63140558      -1.05256154      -0.43450708
N       -1.63846513      -0.15330268       0.15265166
C       -1.14591127       0.99342497       0.25403087
N        0.23830970       1.12638577      -0.10823868
H        0.74473410       0.86109606      -1.18927535
H       -0.94949112      -1.26841632      -1.45783796
H       -0.60808853      -1.99724880       0.10968053
H       -1.67981250       1.87789656       0.58149870
H        0.83209927       1.66988138       0.50616082
12
Frame=8 idx=008056 GeodesicLength=0.3762173179836825 rxn_smarts="[N:1]#[C:2][C@@:3]1([H:8])[C:4]([H:9])([H:10])[N:5]=[C:6]([H:11])[N:7]1[H:12]>>[N:1]#[C:2][C-:3]1[C:4]([H:9])([H:10])[N:5]=[C:6]([H:11])[N+:7]1([H:8])[H:12]"
N        2.46913830      -1.02510512       1.36076637
C        1.65678196      -0.71505514       0.60182588
C        0.70379100      -0.30979675      -0.37580967
C       -0.63161552      -1.05162167      -0.43384581
N       -1.63829841      -0.15541484       0.15833164
C       -1.14621806       0.99202350       0.25635765
N        0.23800548       1.12435318      -0.10710700
H        0.75378152       0.85809187      -1.20047850
H       -0.95128516      -1.26532320      -1.45720065
H       -0.60431420      -1.99738986       0.10805805
H       -1.68049425       1.87747919       0.58067579
H        0.83072734       1.66775884       0.50842625
12
Frame=9 idx=008056 GeodesicLength=0.42321989220018125 rxn_smarts="[N:1]#[C:2][C@@:3]1([H:8])[C:4]([H:9])([H:10])[N:5]=[C:6]([H:11])[N:7]1[H:12]>>[N:1]#[C:2][C-:3]1[C:4]([H:9])([H:10])[N:5]=[C:6]([H:11])[N+:7]1([H:8])[H:12]"
N        2.46542053      -1.02535285       1.36144855
C        1.65436207      -0.71259466       0.60240917
C        0.70154769      -0.30469310      -0.37614506
C       -0.63182643      -1.05064876      -0.43320048
N       -1.63813618      -0.15751988       0.16397014
C       -1.14657006       0.99063103       0.25870117
N        0.23764734       1.12238628      -0.10593311
H        0.76304664       0.85477689      -1.21180817
H       -0.95307576      -1.26220734      -1.45657190
H       -0.60054466      -1.99748253       0.10640605
H       -1.68121295       1.87700127       0.58004057
H        0.82934177       1.66570364       0.51068305
12
Frame=10 idx=008056 GeodesicLength=0.47022317250685247 rxn_smarts="[N:1]#[C:2][C@@:3]1([H:8])[C:4]([H:9])([H:10])[N:5]=[C:6]([H:11])[N:7]1[H:12]>>[N:1]#[C:2][C-:3]1[C:4]([H:9])([H:10])[N:5]=[C:6]([H:11])[N+:7]1([H:8])[H:12]"
N        2.46172484      -1.02558936       1.36206550
C        1.65194353      -0.71011172       0.60296602
C        0.69928637      -0.29954368      -0.37648139
C       -0.63203832      -1.04963722      -0.43255636
N       -1.63797087      -0.15962883       0.16961959
C       -1.14696138       0.98923638       0.26113244
N        0.23723653       1.12048494      -0.10466073
H        0.77251941       0.85115408      -1.22323697
H       -0.95488109      -1.25904049      -1.45593614
H       -0.59676850      -1.99753479       0.10471470
H       -1.68203876       1.87651087       0.57937616
H        0.82794823       1.66369982       0.51299720
12
Frame=11 idx=008056 GeodesicLength=0.5172201943623105 rxn_smarts="[N:1]#[C:2][C@@:3]1([H:8])[C:4]([H:9])([H:10])[N:5]=[C:6]([H:11])[N:7]1[H:12]>>[N:1]#[C:2][C-:3]1[C:4]([H:9])([H:10])[N:5]=[C:6]([H:11])[N+:7]1([H:8])[H:12]"
N        2.45805681      -1.02581075       1.36261451
C        1.64951114      -0.70759699       0.60351724
C        0.69700582      -0.29434643      -0.37681493
C       -0.63225154      -1.04858573      -0.43191784
N       -1.63780810      -0.16173750       0.17526194
C       -1.14739953       0.98784563       0.26362595
N        0.23676911       1.11865228      -0.10330250
H        0.78221698       0.84719842      -1.23477513
H       -0.95669228      -1.25582818      -1.45529896
H       -0.59299032      -1.99754154       0.10298577
H       -1.68295596       1.87599478       0.57874779
H        0.82653787       1.66175601       0.51535615
12
Frame=12 idx=008056 GeodesicLength=0.5642151599871822 rxn_smarts="[N:1]#[C:2][C@@:3]1([H:8])[C:4]([H:9])([H:10])[N:5]=[C:6]([H:11])[N:7]1[H:12]>>[N:1]#[C:2][C-:3]1[C:4]([H:9])([H:10])[N:5]=[C:6]([H:11])[N+:7]1([H:8])[H:12]"
N        2.45437739      -1.02601085       1.36313223
C        1.64706535      -0.70503715       0.60406085
C        0.69470788      -0.28909640      -0.37715303
C       -0.63246280      -1.04749319      -0.43129133
N       -1.63764136      -0.16385004       0.18090378
C       -1.14788547       0.98646020       0.26616980
N        0.23624255       1.11689311      -0.10187618
H        0.79214910       0.84288222      -1.24644666
H       -0.95851307      -1.25256411      -1.45466589
H       -0.58920032      -1.99750475       0.10120693
H       -1.68394749       1.87543758       0.57822213
H        0.82510823       1.65988339       0.51773739
12
Frame=13 idx=008056 GeodesicLength=0.6112103063331346 rxn_smarts="[N:1]#[C:2][C@@:3]1([H:8])[C:4]([H:9])([H:10])[N:5]=[C:6]([H:11])[N:7]1[H:12]>>[N:1]#[C:2][C-:3]1[C:4]([H:9])([H:10])[N:5]=[C:6]([H:11])[N+:7]1([H:8])[H:12]"
N        2.45066847      -1.02619429       1.36362759
C        1.64462196      -0.70243332       0.60457160
C        0.69239371      -0.28378584      -0.37750333
C       -0.63266952      -1.04635514      -0.43067376
N       -1.63745822      -0.16597635       0.18658333
C       -1.14841484       0.98507404       0.26879079
N        0.23565706       1.11520900      -0.10036894
H        0.80231410       0.83819323      -1.25825578
H       -0.96036011      -1.24922699      -1.45403026
H       -0.58538105      -1.99742850       0.09936260
H       -1.68503325       1.87484979       0.57773655
H        0.82366168       1.65807434       0.52015961
12
Frame=14 idx=008056 GeodesicLength=0.6582060057045146 rxn_smarts="[N:1]#[C:2][C@@:3]1([H:8])[C:4]([H:9])([H:10])[N:5]=[C:6]([H:11])[N:7]1[H:12]>>[N:1]#[C:2][C-:3]1[C:4]([H:9])([H:10])[N:5]=[C:6]([H:11])[N+:7]1([H:8])[H:12]"
N        2.44693597      -1.02636054       1.36409252
C        1.64218075      -0.69978522       0.60504796
C        0.69006209      -0.27840936      -0.37786518
C       -0.63287180      -1.04516885      -0.43006593
N       -1.63725952      -0.16811708       0.19230184
C       -1.14898770       0.98368623       0.27150166
N        0.23501098       1.11360310      -0.09877249
H        0.81271889       0.83311070      -1.27020549
H       -0.96223383      -1.24581300      -1.45339321
H       -0.58153159      -1.99731113       0.09744974
H       -1.68622258       1.87423394       0.57727760
H        0.82219834       1.65633120       0.52263098
12
Frame=15 idx=008056 GeodesicLength=0.7052024979349552 rxn_smarts="[N:1]#[C:2][C@@:3]1([H:8])[C:4]([H:9])([H:10])[N:5]=[C:6]([H:11])[N:7]1[H:12]>>[N:1]#[C:2][C-:3]1[C:4]([H:9])([H:10])[N:5]=[C:6]([H:11])[N+:7]1([H:8])[H:12]"
N        2.44318343      -1.02650922       1.36451993
C        1.63974242      -0.69709205       0.60548652
C        0.68771198      -0.27296083      -0.37823852
C       -0.63306933      -1.04393057      -0.42946852
N       -1.63704549      -0.17027296       0.19806156
C       -1.14960403       0.98229528       0.27431551
N        0.23430254       1.11207798      -0.09707837
H        0.82337041       0.82761235      -1.28229860
H       -0.96413507      -1.24231696      -1.45275487
H       -0.57764985      -1.99714939       0.09546487
H       -1.68752528       1.87359114       0.57683098
H        0.82071829       1.65465523       0.52515950
12
Frame=16 idx=008056 GeodesicLength=0.7521972025559316 rxn_smarts="[N:1]#[C:2][C@@:3]1([H:8])[C:4]([H:9])([H:10])[N:5]=[C:6]([H:11])[N:7]1[H:12]>>[N:1]#[C:2][C-:3]1[C:4]([H:9])([H:10])[N:5]=[C:6]([H:11])[N+:7]1([H:8])[H:12]"
N        2.43943611      -1.02662749       1.36488883
C        1.63729630      -0.69435377       0.60589906
C        0.68534032      -0.26743707      -0.37861817
C       -0.63326426      -1.04263778      -0.42888301
N       -1.63682446      -0.17243818       0.20384330
C       -1.15027129       0.98090622       0.27721755
N        0.23352951       1.11063531      -0.09528153
H        0.83428320       0.82166668      -1.29453529
H       -0.96605690      -1.23874156      -1.45211808
H       -0.57374453      -1.99693726       0.09341136
H       -1.68893832       1.87291883       0.57641948
H        0.81921432       1.65304608       0.52775650
