11
Frame=0 idx=004181 GeodesicLength=0.0 rxn_smarts="[O:1]([C:2]([C@@:3]([O:4][H:11])([C:5]#[N:6])[H:10])([H:8])[H:9])[H:7]>>[O:1]1[C:2]([H:8])([H:9])[C@:3]([O:4][H:11])([H:10])/[C:5]1=[N:6]/[H:7]"
O        1.20094209      -0.13352282      -0.71791564
C        0.64955538      -0.66595860       0.45961178
C       -0.64477209       0.16793145       0.54951365
O       -0.48266060       1.41218981       1.14283892
C       -0.68404815       0.22802776      -0.95787599
N       -0.86076885      -0.00691254      -2.10833537
H        0.30073614      -0.26964447      -1.91816243
H        0.43540042      -1.74268442       0.40476003
H        1.27130629      -0.47220031       1.33974019
H       -1.54703749      -0.28869323       0.96035355
H        0.36134691       1.77146732       0.84547126
11
Frame=1 idx=004181 GeodesicLength=0.10668686467043483 rxn_smarts="[O:1]([C:2]([C@@:3]([O:4][H:11])([C:5]#[N:6])[H:10])([H:8])[H:9])[H:7]>>[O:1]1[C:2]([H:8])([H:9])[C@:3]([O:4][H:11])([H:10])/[C:5]1=[N:6]/[H:7]"
O        1.20149509      -0.13186190      -0.71066595
C        0.64560429      -0.67163683       0.46280618
C       -0.64246886       0.16927382       0.55427305
O       -0.48237135       1.42079144       1.13248190
C       -0.70043629       0.21387974      -0.95071244
N       -0.86728656      -0.00473558      -2.10663701
H        0.32886838      -0.25495945      -1.92661055
H        0.43418956      -1.74754517       0.39036622
H        1.26558687      -0.49426545       1.34698101
H       -1.53746089      -0.28851143       0.98000444
H        0.35427976       1.78957080       0.82771315
11
Frame=2 idx=004181 GeodesicLength=0.21308123965328454 rxn_smarts="[O:1]([C:2]([C@@:3]([O:4][H:11])([C:5]#[N:6])[H:10])([H:8])[H:9])[H:7]>>[O:1]1[C:2]([H:8])([H:9])[C@:3]([O:4][H:11])([H:10])/[C:5]1=[N:6]/[H:7]"
O        1.20207721      -0.13053076      -0.70335861
C        0.64166787      -0.67753802       0.46604034
C       -0.64004845       0.17050243       0.55898463
O       -0.48206021       1.42915416       1.12189502
C       -0.71689333       0.19927083      -0.94328415
N       -0.87403554      -0.00156407      -2.10461418
H        0.35750196      -0.23991006      -1.93453578
H        0.43307042      -1.75237390       0.37620328
H        1.25976575      -0.51667594       1.35404458
H       -1.52757613      -0.28809568       0.99974498
H        0.34653045       1.80776100       0.80887988
11
Frame=3 idx=004181 GeodesicLength=0.3192536351260743 rxn_smarts="[O:1]([C:2]([C@@:3]([O:4][H:11])([C:5]#[N:6])[H:10])([H:8])[H:9])[H:7]>>[O:1]1[C:2]([H:8])([H:9])[C@:3]([O:4][H:11])([H:10])/[C:5]1=[N:6]/[H:7]"
O        1.20269279      -0.12949811      -0.69599990
C        0.63774328      -0.68365143       0.46929743
C       -0.63750950       0.17162971       0.56363474
O       -0.48172162       1.43727414       1.11109140
C       -0.73342083       0.18425058      -0.93558691
N       -0.88108194       0.00263204      -2.10216738
H        0.38674736      -0.22461657      -1.94195255
H        0.43203691      -1.75716420       0.36223790
H        1.25383367      -0.53943516       1.36091491
H       -1.51737539      -0.28743090       1.01955757
H        0.33805529       1.82600991       0.78897279
11
Frame=4 idx=004181 GeodesicLength=0.42530238369033674 rxn_smarts="[O:1]([C:2]([C@@:3]([O:4][H:11])([C:5]#[N:6])[H:10])([H:8])[H:9])[H:7]>>[O:1]1[C:2]([H:8])([H:9])[C@:3]([O:4][H:11])([H:10])/[C:5]1=[N:6]/[H:7]"
O        1.20334105      -0.12871781      -0.68859834
C        0.63382461      -0.68996194       0.47255214
C       -0.63485181       0.17267474       0.56821320
O       -0.48134446       1.44515054       1.10009883
C       -0.75003132       0.16889602      -0.92761106
N       -0.88849329       0.00782879      -2.09919557
H        0.41674242      -0.20920913      -1.94888634
H        0.43107525      -1.76190255       0.34841770
H        1.24777926      -0.56255228       1.36756874
H       -1.50685136      -0.28649622       1.03942476
H        0.32880966       1.84428985       0.76801593
11
Frame=5 idx=004181 GeodesicLength=0.531188018751405 rxn_smarts="[O:1]([C:2]([C@@:3]([O:4][H:11])([C:5]#[N:6])[H:10])([H:8])[H:9])[H:7]>>[O:1]1[C:2]([H:8])([H:9])[C@:3]([O:4][H:11])([H:10])/[C:5]1=[N:6]/[H:7]"
O        1.20402238      -0.12813598      -0.68116051
C        0.62990271      -0.69645260       0.47577709
C       -0.63207474       0.17366246       0.57271017
O       -0.48091543       1.45278964       1.08895081
C       -0.76672640       0.15330258      -0.91935707
N       -0.89633840       0.01390680      -2.09559521
H        0.44761492      -0.19376998      -1.95537396
H        0.43016162      -1.76656859       0.33467815
H        1.24158495      -0.58604189       1.37398104
H       -1.49600209      -0.28526619       1.05932129
H        0.31877048       1.86257376       0.74606820
11
Frame=6 idx=004181 GeodesicLength=0.6371484570045174 rxn_smarts="[O:1]([C:2]([C@@:3]([O:4][H:11])([C:5]#[N:6])[H:10])([H:8])[H:9])[H:7]>>[O:1]1[C:2]([H:8])([H:9])[C@:3]([O:4][H:11])([H:10])/[C:5]1=[N:6]/[H:7]"
O        1.20472466      -0.12768122      -0.67369663
C        0.62596167      -0.70310075       0.47893343
C       -0.62918165       0.17462417       0.57712612
O       -0.48041518       1.46020191       1.07769534
C       -0.78353790       0.13759270      -0.91080304
N       -0.90471417       0.02072225      -2.09127557
H        0.47958554      -0.17842425      -1.96145676
H        0.42926497      -1.77113281       0.32092761
H        1.23523138      -0.60992809       1.38011025
H       -1.48481978      -0.28371042       1.07924118
H        0.30790047       1.88083650       0.72319808
11
Frame=7 idx=004181 GeodesicLength=0.7432067256610412 rxn_smarts="[O:1]([C:2]([C@@:3]([O:4][H:11])([C:5]#[N:6])[H:10])([H:8])[H:9])[H:7]>>[O:1]1[C:2]([H:8])([H:9])[C@:3]([O:4][H:11])([H:10])/[C:5]1=[N:6]/[H:7]"
O        1.20543347      -0.12728559      -0.66621869
C        0.62198383      -0.70988423       0.48198296
C       -0.62617389       0.17559609       0.58146290
O       -0.47982216       1.46740685       1.06638159
C       -0.80049356       0.12188985      -0.90193418
N       -0.91370842       0.02803816      -2.08617646
H        0.51284830      -0.16322073      -1.96716920
H        0.42834411      -1.77556100       0.30707682
H        1.22869674      -0.63423688       1.38591220
H       -1.47330126      -0.28179560       1.09917455
H        0.29619283       1.89905307       0.69950752
11
Frame=8 idx=004181 GeodesicLength=0.8494988051846173 rxn_smarts="[O:1]([C:2]([C@@:3]([O:4][H:11])([C:5]#[N:6])[H:10])([H:8])[H:9])[H:7]>>[O:1]1[C:2]([H:8])([H:9])[C@:3]([O:4][H:11])([H:10])/[C:5]1=[N:6]/[H:7]"
O        1.20612126      -0.12688101      -0.65874460
C        0.61794774      -0.71678307       0.48488183
C       -0.62305616       0.17661061       0.58573495
O       -0.47911201       1.47442750       1.05505460
C       -0.81765008       0.10630874      -0.89271959
N       -0.92341495       0.03564306      -2.08024456
H        0.54766108      -0.14822449      -1.97253495
H        0.42735410      -1.77981672       0.29303006
H        1.22196273      -0.65899781       1.39132763
H       -1.46143712      -0.27948839       1.11913453
H        0.28362342       1.91720160       0.67508009
11
Frame=9 idx=004181 GeodesicLength=0.9567918422649591 rxn_smarts="[O:1]([C:2]([C@@:3]([O:4][H:11])([C:5]#[N:6])[H:10])([H:8])[H:9])[H:7]>>[O:1]1[C:2]([H:8])([H:9])[C@:3]([O:4][H:11])([H:10])/[C:5]1=[N:6]/[H:7]"
O        1.20681258      -0.12628777      -0.65124092
C        0.61382815      -0.72374475       0.48757132
C       -0.61982118       0.17773422       0.58993100
O       -0.47826818       1.48130722       1.04377868
C       -0.83490924       0.09108387      -0.88316367
N       -0.93429116       0.04316388      -2.07340223
H        0.58445856      -0.13370174      -1.97765831
H        0.42624474      -1.78382702       0.27860651
H        1.21495979      -0.68425258       1.39631294
H       -1.44921334      -0.27675897       1.13905184
H        0.27019928       1.93528364       0.65021284
11
Frame=10 idx=004181 GeodesicLength=1.0643378095072602 rxn_smarts="[O:1]([C:2]([C@@:3]([O:4][H:11])([C:5]#[N:6])[H:10])([H:8])[H:9])[H:7]>>[O:1]1[C:2]([H:8])([H:9])[C@:3]([O:4][H:11])([H:10])/[C:5]1=[N:6]/[H:7]"
O        1.20741674      -0.12557039      -0.64378029
C        0.60959669      -0.73078611       0.49002175
C       -0.61648407       0.17896477       0.59409288
O       -0.47725651       1.48806113       1.03255864
C       -0.85248093       0.07619090      -0.87318845
N       -0.94611845       0.05047622      -2.06565231
H        0.62337818      -0.11942951      -1.98247332
H        0.42496201      -1.78758555       0.26380336
H        1.20770756      -0.71001306       1.40077820
H       -1.43661565      -0.27357731       1.15903326
H        0.25589442       1.95326891       0.62480629
11
Frame=11 idx=004181 GeodesicLength=1.1720193088051567 rxn_smarts="[O:1]([C:2]([C@@:3]([O:4][H:11])([C:5]#[N:6])[H:10])([H:8])[H:9])[H:7]>>[O:1]1[C:2]([H:8])([H:9])[C@:3]([O:4][H:11])([H:10])/[C:5]1=[N:6]/[H:7]"
O        1.20788941      -0.12469228      -0.63639189
C        0.60522467      -0.73789347       0.49219314
C       -0.61305055       0.18032769       0.59824025
O       -0.47605971       1.49472091       1.02140964
C       -0.87043950       0.06170116      -0.86274427
N       -0.95899046       0.05735715      -2.05698471
H        0.66470004      -0.10539562      -1.98698715
H        0.42345252      -1.79105785       0.24854509
H        1.20018582      -0.73629319       1.40465302
H       -1.42362180      -0.26991787       1.17911654
H        0.24070954       1.97114337       0.59895035
11
Frame=12 idx=004181 GeodesicLength=1.279851207139464 rxn_smarts="[O:1]([C:2]([C@@:3]([O:4][H:11])([C:5]#[N:6])[H:10])([H:8])[H:9])[H:7]>>[O:1]1[C:2]([H:8])([H:9])[C@:3]([O:4][H:11])([H:10])/[C:5]1=[N:6]/[H:7]"
O        1.20817615      -0.12361636      -0.62911378
C        0.60068070      -0.74505290       0.49403912
C       -0.60952673       0.18184522       0.60239547
O       -0.47466242       1.50131697       1.01034067
C       -0.88887651       0.04766779      -0.85176388
N       -0.97304618       0.06365041      -2.04738176
H        0.70879382      -0.09163547      -1.99119105
H        0.42165937      -1.79420810       0.23275551
H        1.19237934      -0.76310364       1.40785478
H       -1.41019433      -0.26575950       1.19935112
H        0.22461678       1.98889558       0.57271380
11
Frame=13 idx=004181 GeodesicLength=1.3876353739299288 rxn_smarts="[O:1]([C:2]([C@@:3]([O:4][H:11])([C:5]#[N:6])[H:10])([H:8])[H:9])[H:7]>>[O:1]1[C:2]([H:8])([H:9])[C@:3]([O:4][H:11])([H:10])/[C:5]1=[N:6]/[H:7]"
O        1.20821473      -0.12233164      -0.62199658
C        0.59593683      -0.75225813       0.49551620
C       -0.60591853       0.18353566       0.60657719
O       -0.47305343       1.50788263       0.99933507
C       -0.90788915       0.03410815      -0.84018927
N       -0.98841445       0.06919583      -2.03685230
H        0.75599792      -0.07810397      -1.99502216
H        0.41952690      -1.79700947       0.21638431
H        1.18427902      -0.79044750       1.41029759
H       -1.39629461      -0.26107558       1.21979201
H        0.20761478       2.00650401       0.54615794
11
Frame=14 idx=004181 GeodesicLength=1.4953823733445277 rxn_smarts="[O:1]([C:2]([C@@:3]([O:4][H:11])([C:5]#[N:6])[H:10])([H:8])[H:9])[H:7]>>[O:1]1[C:2]([H:8])([H:9])[C@:3]([O:4][H:11])([H:10])/[C:5]1=[N:6]/[H:7]"
O        1.20793093      -0.12082226      -0.61510383
C        0.59095950      -0.75949946       0.49657023
C       -0.60223354       0.18541113       0.61080424
O       -0.47122420       1.51444323       0.98837485
C       -0.92759618       0.02103470      -0.82793094
N       -1.00529504       0.07393510      -2.02536091
H        0.80679924      -0.06485598      -1.99840539
H        0.41699588      -1.79943097       0.19936361
H        1.17587954      -0.81832370       1.41187669
H       -1.38185891      -0.25584781       1.24050720
H        0.18964277       2.02395603       0.51930424
11
Frame=15 idx=004181 GeodesicLength=1.6029020586654028 rxn_smarts="[O:1]([C:2]([C@@:3]([O:4][H:11])([C:5]#[N:6])[H:10])([H:8])[H:9])[H:7]>>[O:1]1[C:2]([H:8])([H:9])[C@:3]([O:4][H:11])([H:10])/[C:5]1=[N:6]/[H:7]"
O        1.20723856      -0.11909054      -0.60852045
C        0.58571665      -0.76677134       0.49714270
C       -0.59847888       0.18748417       0.61508965
O       -0.46917204       1.52102855       0.97741883
C       -0.94812146       0.00843544      -0.81490556
N       -1.02389440       0.07778001      -2.01288597
H        0.86167585      -0.05187295      -2.00119891
H        0.41400092      -1.80144722       0.18164073
H        1.16718156      -0.84672472       1.41247779
H       -1.36681869      -0.25005018       1.26156353
H        0.17067192       2.04122877       0.49217766
11
Frame=16 idx=004181 GeodesicLength=1.7100205978737126 rxn_smarts="[O:1]([C:2]([C@@:3]([O:4][H:11])([C:5]#[N:6])[H:10])([H:8])[H:9])[H:7]>>[O:1]1[C:2]([H:8])([H:9])[C@:3]([O:4][H:11])([H:10])/[C:5]1=[N:6]/[H:7]"
O        1.20603767      -0.11714699      -0.60235419
C        0.58017254      -0.77406919       0.49716360
C       -0.59466058       0.18976447       0.61944032
O       -0.46689139       1.52766379       0.96641354
C       -0.96960150      -0.00371059      -0.80101264
N       -1.04447306       0.08068106      -1.99937639
H        0.92119905      -0.03915435      -2.00320921
H        0.41046666      -1.80303501       0.16315784
H        1.15819226      -0.87563864       1.41196943
H       -1.35108337      -0.24365533       1.28303127
H        0.15064173       2.05830078       0.46477644
