21
Frame=0 idx=006367 GeodesicLength=0.0 rxn_smarts="[C:1]([C:2]([C:3]([H:12])([H:13])[H:14])([C:4]([C:5]1([H:17])[C:6]([H:18])([H:19])[C:7]1([H:20])[H:21])([H:15])[H:16])[H:11])([H:8])([H:9])[H:10]>>[C:1]([C:2]([C:3]([H:12])([H:13])[H:14])([C:4]([C:5][C:6]([C:7]([H:17])([H:20])[H:21])([H:18])[H:19])([H:15])[H:16])[H:11])([H:8])([H:9])[H:10]"
C       -1.40477520       1.23405857      -0.21350914
C       -1.28745073      -0.16608292       0.38027648
C       -2.33241692      -1.09846426      -0.22599855
C        0.11431092      -0.74993842       0.20048870
C        1.22992210      -0.08232468       0.96738058
C        2.55378795      -0.39553565       0.38631731
C        2.20303632       0.93229442      -0.25980222
H       -1.14996669       1.23058403      -1.27860768
H       -2.42398326       1.61472814      -0.11958447
H       -0.74752874       1.94350662       0.29305948
H       -1.46700030      -0.09182381       1.45796567
H       -3.34314562      -0.71397520      -0.07319097
H       -2.18006628      -1.20772015      -1.30433410
H       -2.28304584      -2.09526427       0.21851861
H        0.12568774      -1.76001453       0.63388399
H        0.32477005      -0.89388254      -0.87455706
H        1.26569375       1.25417555       0.39928064
H        3.41185836      -0.36469604       1.05065940
H        2.61462442      -1.21825818      -0.32717755
H        1.90513579       0.87793581      -1.30135796
H        2.87055225       1.75069749      -0.00971116
21
Frame=1 idx=006367 GeodesicLength=0.057901574985149216 rxn_smarts="[C:1]([C:2]([C:3]([H:12])([H:13])[H:14])([C:4]([C:5]1([H:17])[C:6]([H:18])([H:19])[C:7]1([H:20])[H:21])([H:15])[H:16])[H:11])([H:8])([H:9])[H:10]>>[C:1]([C:2]([C:3]([H:12])([H:13])[H:14])([C:4]([C:5][C:6]([C:7]([H:17])([H:20])[H:21])([H:18])[H:19])([H:15])[H:16])[H:11])([H:8])([H:9])[H:10]"
C       -1.40897364       1.23081806      -0.22141465
C       -1.29001534      -0.16667730       0.37801949
C       -2.33636465      -1.10175085      -0.22174013
C        0.11167162      -0.74981511       0.19639698
C        1.22867144      -0.08375341       0.95813003
C        2.55473869      -0.39717011       0.38185995
C        2.21035882       0.93813943      -0.25255374
H       -1.15783307       1.22274166      -1.28733138
H       -2.42756565       1.61279804      -0.12578210
H       -0.74990427       1.94212832       0.27993080
H       -1.46674394      -0.08818233       1.45590977
H       -3.34679044      -0.71666731      -0.06845603
H       -2.18622456      -1.21591539      -1.29986357
H       -2.28638071      -2.09651726       0.22725262
H        0.12442975      -1.76014193       0.63023479
H        0.32136322      -0.89425062      -0.87854424
H        1.28293792       1.27416821       0.43798879
H        3.40758935      -0.37377760       1.05320392
H        2.61637751      -1.21360954      -0.33871343
H        1.90116571       0.89413294      -1.29147940
H        2.89749224       1.74330211      -0.01304847
21
Frame=2 idx=006367 GeodesicLength=0.11571025847512889 rxn_smarts="[C:1]([C:2]([C:3]([H:12])([H:13])[H:14])([C:4]([C:5]1([H:17])[C:6]([H:18])([H:19])[C:7]1([H:20])[H:21])([H:15])[H:16])[H:11])([H:8])([H:9])[H:10]>>[C:1]([C:2]([C:3]([H:12])([H:13])[H:14])([C:4]([C:5][C:6]([C:7]([H:17])([H:20])[H:21])([H:18])[H:19])([H:15])[H:16])[H:11])([H:8])([H:9])[H:10]"
C       -1.41261838       1.22745383      -0.22967741
C       -1.29247594      -0.16729451       0.37568099
C       -2.34036290      -1.10490054      -0.21743411
C        0.10900640      -0.75011966       0.19245662
C        1.22738682      -0.08523528       0.94877029
C        2.55561168      -0.39851611       0.37696221
C        2.21705101       0.94435674      -0.24500554
H       -1.16522005       1.21443404      -1.29639383
H       -2.43045289       1.61110600      -0.13235714
H       -0.75134855       1.94044612       0.26614653
H       -1.46645033      -0.08428211       1.45371641
H       -3.35039705      -0.71892347      -0.06384130
H       -2.19238855      -1.22422110      -1.29528547
H       -2.29000515      -2.09753321       0.23622641
H        0.12308475      -1.76049191       0.62718046
H        0.31792286      -0.89534701      -0.88234293
H        1.30078335       1.29272438       0.47855620
H        3.40332800      -0.38263560       1.05500885
H        2.61810726      -1.20832180      -0.35094968
H        1.89644836       0.91105441      -1.28105167
H        2.92298928       1.73624679      -0.01636590
21
Frame=3 idx=006367 GeodesicLength=0.17342448395115367 rxn_smarts="[C:1]([C:2]([C:3]([H:12])([H:13])[H:14])([C:4]([C:5]1([H:17])[C:6]([H:18])([H:19])[C:7]1([H:20])[H:21])([H:15])[H:16])[H:11])([H:8])([H:9])[H:10]>>[C:1]([C:2]([C:3]([H:12])([H:13])[H:14])([C:4]([C:5][C:6]([C:7]([H:17])([H:20])[H:21])([H:18])[H:19])([H:15])[H:16])[H:11])([H:8])([H:9])[H:10]"
C       -1.41575723       1.22397806      -0.23826988
C       -1.29484215      -0.16792707       0.37326242
C       -2.34440909      -1.10791511      -0.21308252
C        0.10631773      -0.75081277       0.18865341
C        1.22605757      -0.08670161       0.93928137
C        2.55640239      -0.39956608       0.37165164
C        2.22317000       0.95092941      -0.23718738
H       -1.17220632       1.20569364      -1.30576929
H       -2.43269468       1.60964654      -0.13925404
H       -0.75190495       1.93846199       0.25172939
H       -1.46612090      -0.08013761       1.45138689
H       -3.35396917      -0.72076961      -0.05933607
H       -2.19856496      -1.23261883      -1.29060181
H       -2.29389161      -2.09831673       0.24542147
H        0.12167184      -1.76102134       0.62471227
H        0.31444618      -0.89713074      -0.88596731
H        1.31924441       1.30969303       0.52082937
H        3.39906288      -0.39127430       1.05611945
H        2.61980100      -1.20240800      -0.36381849
H        1.89113063       0.92861389      -1.27011272
H        2.94705643       1.72958324      -0.01964817
21
Frame=4 idx=006367 GeodesicLength=0.23104830915459953 rxn_smarts="[C:1]([C:2]([C:3]([H:12])([H:13])[H:14])([C:4]([C:5]1([H:17])[C:6]([H:18])([H:19])[C:7]1([H:20])[H:21])([H:15])[H:16])[H:11])([H:8])([H:9])[H:10]>>[C:1]([C:2]([C:3]([H:12])([H:13])[H:14])([C:4]([C:5][C:6]([C:7]([H:17])([H:20])[H:21])([H:18])[H:19])([H:15])[H:16])[H:11])([H:8])([H:9])[H:10]"
C       -1.41845134       1.22040534      -0.24716348
C       -1.29712668      -0.16856504       0.37076600
C       -2.34849818      -1.11079991      -0.20868729
C        0.10360826      -0.75184387       0.18497273
C        1.22467391      -0.08807606       0.92964315
C        2.55710693      -0.40031846       0.36595943
C        2.22878581       0.95783359      -0.22913162
H       -1.17887655       1.19655879      -1.31542922
H       -2.43435764       1.60840780      -0.14642188
H       -0.75164464       1.93618593       0.23671343
H       -1.46576008      -0.07576275       1.44892413
H       -3.35751028      -0.72224227      -0.05492870
H       -2.20475741      -1.24109218      -1.28581523
H       -2.29800365      -2.09887684       0.25481852
H        0.12021383      -1.76167673       0.62281678
H        0.31092999      -0.89954802      -0.88943217
H        1.33833963       1.32493666       0.56464312
H        3.39477966      -0.39970722       1.05658723
H        2.62144409      -1.19589026      -0.37724836
H        1.88536620       0.94671953      -1.25871103
H        2.96973812       1.72335195      -0.02287554
21
Frame=5 idx=006367 GeodesicLength=0.2886572596232331 rxn_smarts="[C:1]([C:2]([C:3]([H:12])([H:13])[H:14])([C:4]([C:5]1([H:17])[C:6]([H:18])([H:19])[C:7]1([H:20])[H:21])([H:15])[H:16])[H:11])([H:8])([H:9])[H:10]>>[C:1]([C:2]([C:3]([H:12])([H:13])[H:14])([C:4]([C:5][C:6]([C:7]([H:17])([H:20])[H:21])([H:18])[H:19])([H:15])[H:16])[H:11])([H:8])([H:9])[H:10]"
C       -1.42078819       1.21675153      -0.25632359
C       -1.29934825      -0.16919589       0.36819538
C       -2.35262099      -1.11356888      -0.20424959
C        0.10088030      -0.75314111       0.18139475
C        1.22322822      -0.08927296       0.91983671
C        2.55772572      -0.40078782       0.35992817
C        2.23400491       0.96503316      -0.22087175
H       -1.18533295       1.18708029      -1.32533706
H       -2.43554152       1.60736262      -0.15380958
H       -0.75068383       1.93364307       0.22114804
H       -1.46537621      -0.07117487       1.44633280
H       -3.36102443      -0.72339995      -0.05060162
H       -2.21096602      -1.24962735      -1.28092794
H       -2.30228932      -2.09923189       0.26439560
H        0.11873555      -1.76238821       0.62146081
H        0.30737175      -0.90251267      -0.89275822
H        1.35807619       1.33838105       0.60979531
H        3.39045815      -0.40797185       1.05648542
H        2.62302298      -1.18881266      -0.39115435
H        1.87932889       0.96528248      -1.24689880
H        2.99113906       1.71755191      -0.02604048
21
Frame=6 idx=006367 GeodesicLength=0.34618405276595443 rxn_smarts="[C:1]([C:2]([C:3]([H:12])([H:13])[H:14])([C:4]([C:5]1([H:17])[C:6]([H:18])([H:19])[C:7]1([H:20])[H:21])([H:15])[H:16])[H:11])([H:8])([H:9])[H:10]>>[C:1]([C:2]([C:3]([H:12])([H:13])[H:14])([C:4]([C:5][C:6]([C:7]([H:17])([H:20])[H:21])([H:18])[H:19])([H:15])[H:16])[H:11])([H:8])([H:9])[H:10]"
C       -1.42283824       1.21303113      -0.26572901
C       -1.30152135      -0.16980583       0.36555297
C       -2.35677096      -1.11623053      -0.19976611
C        0.09813723      -0.75464544       0.17790522
C        1.22171467      -0.09021323       0.90983999
C        2.55825472      -0.40097220       0.35358593
C        2.23890257       0.97250737      -0.21243728
H       -1.19165956       1.17729390      -1.33546986
H       -2.43632592       1.60649217      -0.16138486
H       -0.74912113       1.93085226       0.20506545
H       -1.46497457      -0.06637903       1.44361643
H       -3.36451553      -0.72428567      -0.04633912
H       -2.21719201      -1.25821672      -1.27593741
H       -2.30670782      -2.09939183       0.27414388
H        0.11726295      -1.76309737       0.62062745
H        0.30376779      -0.90596382      -0.89596052
H        1.37847816       1.34987981       0.65611847
H        3.38608139      -0.41609061       1.05585737
H        2.62451938      -1.18119377      -0.40547053
H        1.87317223       0.98422628      -1.23472467
H        3.01133599       1.71220314      -0.02909378
21
Frame=7 idx=006367 GeodesicLength=0.4036362160195217 rxn_smarts="[C:1]([C:2]([C:3]([H:12])([H:13])[H:14])([C:4]([C:5]1([H:17])[C:6]([H:18])([H:19])[C:7]1([H:20])[H:21])([H:15])[H:16])[H:11])([H:8])([H:9])[H:10]>>[C:1]([C:2]([C:3]([H:12])([H:13])[H:14])([C:4]([C:5][C:6]([C:7]([H:17])([H:20])[H:21])([H:18])[H:19])([H:15])[H:16])[H:11])([H:8])([H:9])[H:10]"
C       -1.42469241       1.20925889      -0.27536075
C       -1.30366521      -0.17037751       0.36284109
C       -2.36093743      -1.11880161      -0.19523054
C        0.09538171      -0.75627893       0.17448635
C        1.22012884      -0.09081205       0.89963479
C        2.55869284      -0.40088731       0.34696429
C        2.24358246       0.98022491      -0.20385258
H       -1.19795283       1.16723997      -1.34580434
H       -2.43681675       1.60576471      -0.16912422
H       -0.74709202       1.92784505       0.18850115
H       -1.46456380      -0.06137766       1.44077813
H       -3.36798718      -0.72496123      -0.04211929
H       -2.22343300      -1.26685969      -1.27083781
H       -2.31120422      -2.09937397       0.28405796
H        0.11582311      -1.76372841       0.62028493
H        0.30011410      -0.90981349      -0.89905722
H        1.39956821       1.35933851       0.70344284
H        3.38162670      -0.42411467       1.05475996
H        2.62591679      -1.17307169      -0.42013390
H        1.86705344       1.00348812      -1.22223723
H        3.03045667       1.70729805      -0.03199362
21
Frame=8 idx=006367 GeodesicLength=0.46102963360033683 rxn_smarts="[C:1]([C:2]([C:3]([H:12])([H:13])[H:14])([C:4]([C:5]1([H:17])[C:6]([H:18])([H:19])[C:7]1([H:20])[H:21])([H:15])[H:16])[H:11])([H:8])([H:9])[H:10]>>[C:1]([C:2]([C:3]([H:12])([H:13])[H:14])([C:4]([C:5][C:6]([C:7]([H:17])([H:20])[H:21])([H:18])[H:19])([H:15])[H:16])[H:11])([H:8])([H:9])[H:10]"
C       -1.42643873       1.20544674      -0.28520876
C       -1.30579817      -0.17089271       0.36006146
C       -2.36510990      -1.12129942      -0.19063204
C        0.09261655      -0.75796589       0.17112154
C        1.21847038      -0.09099551       0.88920551
C        2.55904102      -0.40055017       0.34009003
C        2.24814593       0.98816013      -0.19513424
H       -1.20430118       1.15695048      -1.35632577
H       -2.43711806       1.60514681      -0.17701839
H       -0.74473192       1.92465741       0.17147831
H       -1.46415179      -0.05616520       1.43781990
H       -3.37144282      -0.72548628      -0.03791833
H       -2.22968538      -1.27556376      -1.26561794
H       -2.31572638      -2.09919318       0.29414319
H        0.11444060      -1.76420947       0.62039873
H        0.29640822      -0.91397461      -0.90206577
H        1.42135948       1.36667069       0.75161949
H        3.37707412      -0.43210041       1.05323908
H        2.62720033      -1.16447835      -0.43509438
H        1.86111230       1.02302809      -1.20947002
H        3.04863541       1.70281461      -0.03469161
21
Frame=9 idx=006367 GeodesicLength=0.5179531557213973 rxn_smarts="[C:1]([C:2]([C:3]([H:12])([H:13])[H:14])([C:4]([C:5]1([H:17])[C:6]([H:18])([H:19])[C:7]1([H:20])[H:21])([H:15])[H:16])[H:11])([H:8])([H:9])[H:10]>>[C:1]([C:2]([C:3]([H:12])([H:13])[H:14])([C:4]([C:5][C:6]([C:7]([H:17])([H:20])[H:21])([H:18])[H:19])([H:15])[H:16])[H:11])([H:8])([H:9])[H:10]"
C       -1.42817978       1.20159821      -0.29526264
C       -1.30793642      -0.17133822       0.35722164
C       -2.36927964      -1.12374976      -0.18594237
C        0.08984430      -0.75963244       0.16778476
C        1.21674595      -0.09077482       0.87857264
C        2.55930719      -0.40001967       0.33299811
C        2.25269050       0.99628406      -0.18618424
H       -1.21082328       1.14644963      -1.36702028
H       -2.43734663       1.60459542      -0.18504726
H       -0.74219403       1.92132788       0.15401613
H       -1.46373763      -0.05073965       1.43475106
H       -3.37488806      -0.72593049      -0.03368919
H       -2.23595338      -1.28435229      -1.26024926
H       -2.32022117      -2.09887037       0.30442769
H        0.11313490      -1.76448878       0.62087301
H        0.29265520      -0.91832509      -0.90501381
H        1.44385256       1.37207763       0.80013388
H        3.37240150      -0.44018114       1.05136044
H        2.62836159      -1.15543980      -0.45034666
H        1.85552031       1.04283997      -1.19637165
H        3.06604601       1.69866974      -0.03701197
21
Frame=10 idx=006367 GeodesicLength=0.5748843144150936 rxn_smarts="[C:1]([C:2]([C:3]([H:12])([H:13])[H:14])([C:4]([C:5]1([H:17])[C:6]([H:18])([H:19])[C:7]1([H:20])[H:21])([H:15])[H:16])[H:11])([H:8])([H:9])[H:10]>>[C:1]([C:2]([C:3]([H:12])([H:13])[H:14])([C:4]([C:5][C:6]([C:7]([H:17])([H:20])[H:21])([H:18])[H:19])([H:15])[H:16])[H:11])([H:8])([H:9])[H:10]"
C       -1.42997410       1.19772381      -0.30554204
C       -1.31009553      -0.17168988       0.35431391
C       -2.37343514      -1.12616324      -0.18115478
C        0.08706819      -0.76121241       0.16447155
C        1.21495178      -0.09002813       0.86769349
C        2.55948089      -0.39927627       0.32568835
C        2.25730238       1.00458306      -0.17710219
H       -1.21755295       1.13574690      -1.37789900
H       -2.43757839       1.60408443      -0.19325553
H       -0.73958189       1.91789425       0.13609954
H       -1.46333277      -0.04507040       1.43156087
H       -3.37832250      -0.72633568      -0.02942365
H       -2.24222539      -1.29323893      -1.25472169
H       -2.32464517      -2.09840943       0.31492448
H        0.11192633      -1.76449131       0.62172630
H        0.28884646      -0.92282365      -0.90790503
H        1.46707147       1.37523706       0.84929472
H        3.36758865      -0.44835653       1.04912223
H        2.62938047      -1.14597581      -0.46584541
H        1.85032393       1.06291350      -1.18302091
H        3.08280328       1.69488866      -0.03902522
21
Frame=11 idx=006367 GeodesicLength=0.6318161114711358 rxn_smarts="[C:1]([C:2]([C:3]([H:12])([H:13])[H:14])([C:4]([C:5]1([H:17])[C:6]([H:18])([H:19])[C:7]1([H:20])[H:21])([H:15])[H:16])[H:11])([H:8])([H:9])[H:10]>>[C:1]([C:2]([C:3]([H:12])([H:13])[H:14])([C:4]([C:5][C:6]([C:7]([H:17])([H:20])[H:21])([H:18])[H:19])([H:15])[H:16])[H:11])([H:8])([H:9])[H:10]"
C       -1.43188019       1.19382439      -0.31607091
C       -1.31228541      -0.17192820       0.35133601
C       -2.37756822      -1.12855209      -0.17624349
C        0.08429177      -0.76265269       0.16117295
C        1.21309174      -0.08872006       0.85656152
C        2.55955936      -0.39832574       0.31815974
C        2.26204438       1.01305078      -0.16786838
H       -1.22454775       1.12483477      -1.38897915
H       -2.43788323       1.60358650      -0.20167672
H       -0.73699249       1.91438527       0.11769880
H       -1.46293806      -0.03912524       1.42824429
H       -3.38174739      -0.72673777      -0.02509366
H       -2.24849804      -1.30225227      -1.24900544
H       -2.32896402      -2.09780995       0.32567468
H        0.11082990      -1.76417032       0.62292996
H        0.28498139      -0.92741376      -0.91074886
H        1.49102099       1.37604455       0.89903582
H        3.36262130      -0.45668369       1.04651953
H        2.63024112      -1.13607518      -0.48159349
H        1.84559890       1.08327373      -1.16940160
H        3.09902396       1.69144696      -0.04065162
21
Frame=12 idx=006367 GeodesicLength=0.6887663629047422 rxn_smarts="[C:1]([C:2]([C:3]([H:12])([H:13])[H:14])([C:4]([C:5]1([H:17])[C:6]([H:18])([H:19])[C:7]1([H:20])[H:21])([H:15])[H:16])[H:11])([H:8])([H:9])[H:10]>>[C:1]([C:2]([C:3]([H:12])([H:13])[H:14])([C:4]([C:5][C:6]([C:7]([H:17])([H:20])[H:21])([H:18])[H:19])([H:15])[H:16])[H:11])([H:8])([H:9])[H:10]"
C       -1.43395736       1.18989689      -0.32687988
C       -1.31451531      -0.17203289       0.34828475
C       -2.38167008      -1.13092995      -0.17117852
C        0.08151878      -0.76389777       0.15787927
C        1.21117175      -0.08682336       0.84517546
C        2.55954085      -0.39718152       0.31040940
C        2.26698106       1.02168163      -0.15844891
H       -1.23186766       1.11369796      -1.40028446
H       -2.43833146       1.60307252      -0.21034957
H       -0.73451882       1.91082975       0.09876832
H       -1.46255282      -0.03286612       1.42479383
H       -3.38516328      -0.72717460      -0.02066726
H       -2.25476716      -1.31142766      -1.24306359
H       -2.33314155      -2.09707015       0.33672838
H        0.10985880      -1.76347631       0.62444976
H        0.28106123      -0.93203154      -0.91355436
H        1.51569590       1.37441855       0.94929718
H        3.35748301      -0.46523705       1.04354437
H        2.63092850      -1.12572634      -0.49761096
H        1.84142142       1.10396466      -1.15548440
H        3.11482419       1.68831332      -0.04180879
21
Frame=13 idx=006367 GeodesicLength=0.7457834491463948 rxn_smarts="[C:1]([C:2]([C:3]([H:12])([H:13])[H:14])([C:4]([C:5]1([H:17])[C:6]([H:18])([H:19])[C:7]1([H:20])[H:21])([H:15])[H:16])[H:11])([H:8])([H:9])[H:10]>>[C:1]([C:2]([C:3]([H:12])([H:13])[H:14])([C:4]([C:5][C:6]([C:7]([H:17])([H:20])[H:21])([H:18])[H:19])([H:15])[H:16])[H:11])([H:8])([H:9])[H:10]"
C       -1.43625244       1.18593651      -0.33800618
C       -1.31679166      -0.17198386       0.34515572
C       -2.38573268      -1.13330754      -0.16592701
C        0.07875316      -0.76490017       0.15458288
C        1.20919959      -0.08431776       0.83353397
C        2.55942400      -0.39585472       0.30242545
C        2.27216591       1.03047601      -0.14880690
H       -1.23956304       1.10231114      -1.41184544
H       -2.43897862       1.60251828      -0.21932117
H       -0.73223357       1.90725091       0.07924792
H       -1.46217427      -0.02624910       1.42119999
H       -3.38856955      -0.72767457      -0.01611257
H       -2.26102960      -1.32080187      -1.23685627
H       -2.33714712      -2.09618335       0.34814200
H        0.10902430      -1.76236445       0.62626041
H        0.27708673      -0.93662716      -0.91632745
H        1.54107720       1.37025880       1.00005110
H        3.35216164      -0.47408474       1.04017869
H        2.63143056      -1.11491203      -0.51393288
H        1.83784504       1.12503815      -1.14123402
H        3.13030442       1.68547154      -0.04240824
21
Frame=14 idx=006367 GeodesicLength=0.8028672990713472 rxn_smarts="[C:1]([C:2]([C:3]([H:12])([H:13])[H:14])([C:4]([C:5]1([H:17])[C:6]([H:18])([H:19])[C:7]1([H:20])[H:21])([H:15])[H:16])[H:11])([H:8])([H:9])[H:10]>>[C:1]([C:2]([C:3]([H:12])([H:13])[H:14])([C:4]([C:5][C:6]([C:7]([H:17])([H:20])[H:21])([H:18])[H:19])([H:15])[H:16])[H:11])([H:8])([H:9])[H:10]"
C       -1.43880789       1.18193314      -0.34949754
C       -1.31911913      -0.17175951       0.34194324
C       -2.38974838      -1.13569304      -0.16044998
C        0.07599925      -0.76561633       0.15127876
C        1.20718337      -0.08118723       0.82163709
C        2.55920537      -0.39434797       0.29418809
C        2.27764769       1.03943974      -0.13888813
H       -1.24768306       1.09063518      -1.42370153
H       -2.43987411       1.60189971      -0.22864761
H       -0.73019765       1.90366658       0.05905812
H       -1.46179769      -0.01922087       1.41744934
H       -3.39196546      -0.72825962      -0.01139581
H       -2.26728101      -1.33041995      -1.23033320
H       -2.34095397      -2.09513456       0.35998574
H        0.10833488      -1.76079669       0.62833645
H        0.27306075      -0.94115421      -0.91907208
H        1.56714212       1.36343757       1.05126316
H        3.34664539      -0.48330043       1.03638407
H        2.63173057      -1.10358870      -0.53060417
H        1.83491656       1.14656708      -1.12658719
H        3.14556241       1.68290013      -0.04234682
21
Frame=15 idx=006367 GeodesicLength=0.8600173146877517 rxn_smarts="[C:1]([C:2]([C:3]([H:12])([H:13])[H:14])([C:4]([C:5]1([H:17])[C:6]([H:18])([H:19])[C:7]1([H:20])[H:21])([H:15])[H:16])[H:11])([H:8])([H:9])[H:10]>>[C:1]([C:2]([C:3]([H:12])([H:13])[H:14])([C:4]([C:5][C:6]([C:7]([H:17])([H:20])[H:21])([H:18])[H:19])([H:15])[H:16])[H:11])([H:8])([H:9])[H:10]"
C       -1.44165833       1.17787416      -0.36140683
C       -1.32150075      -0.17133810       0.33864106
C       -2.39370998      -1.13809247      -0.15470568
C        0.07326137      -0.76600712       0.14796387
C        1.20513162      -0.07742112       0.80948843
C        2.55888095      -0.39266181       0.28567197
C        2.28346564       1.04858247      -0.12862882
H       -1.25627293       1.07862282      -1.43589661
H       -2.44105691       1.60119660      -0.23838979
H       -0.72845730       1.90008820       0.03810787
H       -1.46141767      -0.01172328       1.41352634
H       -3.39534933      -0.72894623      -0.00648278
H       -2.27351752      -1.34032820      -1.22344046
H       -2.34453825      -2.09390442       0.37233544
H        0.10779827      -1.75873603       0.63065974
H        0.26898651      -0.94557452      -0.92178858
H        1.59385560       1.35381067       1.10290404
H        3.34092486      -0.49295584       1.03211360
H        2.63181301      -1.09170545      -0.54768401
H        1.83267585       1.16863190      -1.11147300
H        3.16068529       1.68058776      -0.04151579
21
Frame=16 idx=006367 GeodesicLength=0.9172216820747953 rxn_smarts="[C:1]([C:2]([C:3]([H:12])([H:13])[H:14])([C:4]([C:5]1([H:17])[C:6]([H:18])([H:19])[C:7]1([H:20])[H:21])([H:15])[H:16])[H:11])([H:8])([H:9])[H:10]>>[C:1]([C:2]([C:3]([H:12])([H:13])[H:14])([C:4]([C:5][C:6]([C:7]([H:17])([H:20])[H:21])([H:18])[H:19])([H:15])[H:16])[H:11])([H:8])([H:9])[H:10]"
C       -1.44483085       1.17374279      -0.37379511
C       -1.32393699      -0.17069703       0.33524174
C       -2.39761065      -1.14050926      -0.14864738
C        0.07054450      -0.76603840       0.14463721
C        1.20305379      -0.07301200       0.79709278
C        2.55844622      -0.39078929       0.27684423
C        2.28965293       1.05791855      -0.11795209
H       -1.26537466       1.06621416      -1.44848150
H       -2.44255588       1.60039080      -0.24861593
H       -0.72704419       1.89652018       0.01628918
H       -1.46102613      -0.00369021       1.40941207
H       -3.39871850      -0.72974263      -0.00133741
H       -2.27973524      -1.35057819      -1.21611600
H       -2.34787989      -2.09246601       0.38527856
H        0.10742075      -1.75615035       0.63321612
H        0.26486873      -0.94985736      -0.92447495
H        1.62116761       1.34120855       1.15494272
H        3.33499114      -0.50312489       1.02730307
H        2.63165998      -1.07918988      -0.56524326
H        1.83115485       1.19132680      -1.09579860
H        3.17575248       1.67852367      -0.03979545
