14
Frame=0 idx=007956 GeodesicLength=0.0 rxn_smarts="[C:1]([C:2]([c:3]1[c:4]([H:13])[n:5]([H:14])[n:6][n:7]1)([H:11])[H:12])([H:8])([H:9])[H:10]>>[C:1]([C:2]([C:3]1=[N:7][N:6]=[N:5][C:4]1([H:13])[H:14])([H:11])[H:12])([H:8])([H:9])[H:10]"
C       -1.77375029       0.79383671      -0.00366487
C       -1.05317148      -0.55206962      -0.08245972
C        0.40467046      -0.43347341       0.21227288
C        1.49192544      -0.34556910      -0.65308840
N        2.64960475      -0.24024780       0.18713123
N        2.19085842      -0.20470815       1.42013647
N        0.88373815      -0.36076771       1.45329353
H       -2.84030330       0.67017314      -0.19642206
H       -1.65457585       1.23523185       0.98655940
H       -1.37746953       1.49758167      -0.73856644
H       -1.48625824      -1.24488283       0.64130591
H       -1.18703765      -0.99300082      -1.07275146
H        1.59730551      -0.55440991      -1.70687380
H        2.15446357       0.73230602      -0.44687268
14
Frame=1 idx=007956 GeodesicLength=0.04185786388103071 rxn_smarts="[C:1]([C:2]([c:3]1[c:4]([H:13])[n:5]([H:14])[n:6][n:7]1)([H:11])[H:12])([H:8])([H:9])[H:10]>>[C:1]([C:2]([C:3]1=[N:7][N:6]=[N:5][C:4]1([H:13])[H:14])([H:11])[H:12])([H:8])([H:9])[H:10]"
C       -1.77779157       0.79354201      -0.00379203
C       -1.05323021      -0.55021622      -0.08172894
C        0.40396865      -0.42729190       0.21393424
C        1.49153128      -0.33538419      -0.65337039
N        2.64633114      -0.24510161       0.18805807
N        2.19301626      -0.21301921       1.42064408
N        0.88249429      -0.36330340       1.45477444
H       -2.84398081       0.66639815      -0.19640418
H       -1.66129921       1.23552945       0.98650848
H       -1.38330017       1.49844347      -0.73851627
H       -1.48517237      -1.24484075       0.64099148
H       -1.18584870      -0.99170179      -1.07201415
H        1.59597972      -0.56362729      -1.70329636
H        2.17730170       0.74057327      -0.45578848
14
Frame=2 idx=007956 GeodesicLength=0.08371009292550557 rxn_smarts="[C:1]([C:2]([c:3]1[c:4]([H:13])[n:5]([H:14])[n:6][n:7]1)([H:11])[H:12])([H:8])([H:9])[H:10]>>[C:1]([C:2]([C:3]1=[N:7][N:6]=[N:5][C:4]1([H:13])[H:14])([H:11])[H:12])([H:8])([H:9])[H:10]"
C       -1.78178110       0.79323349      -0.00387767
C       -1.05331580      -0.54840034      -0.08103313
C        0.40323119      -0.42127704       0.21562859
C        1.49112579      -0.32507851      -0.65359439
N        2.64290965      -0.24949874       0.18898289
N        2.19500833      -0.22099262       1.42112330
N        0.88117188      -0.36610292       1.45625136
H       -2.84759531       0.66268836      -0.19639711
H       -1.66797598       1.23571641       0.98653546
H       -1.38900408       1.49932019      -0.73835149
H       -1.48417494      -1.24487346       0.64056167
H       -1.18466686      -0.99034785      -1.07135395
H        1.59444410      -0.57280069      -1.69932126
H        2.20062314       0.74841372      -0.46515427
14
Frame=3 idx=007956 GeodesicLength=0.1255508030958252 rxn_smarts="[C:1]([C:2]([c:3]1[c:4]([H:13])[n:5]([H:14])[n:6][n:7]1)([H:11])[H:12])([H:8])([H:9])[H:10]>>[C:1]([C:2]([C:3]1=[N:7][N:6]=[N:5][C:4]1([H:13])[H:14])([H:11])[H:12])([H:8])([H:9])[H:10]"
C       -1.78567781       0.79291210      -0.00393010
C       -1.05343995      -0.54664935      -0.08036540
C        0.40245118      -0.41551646       0.21736603
C        1.49069556      -0.31468765      -0.65374637
N        2.63933417      -0.25335675       0.18991860
N        2.19682919      -0.22858077       1.42158630
N        0.87976282      -0.36923352       1.45773161
H       -2.85111097       0.65908530      -0.19640791
H       -1.67454026       1.23580170       0.98662527
H       -1.39451124       1.50018684      -0.73808790
H       -1.48330400      -1.24498319       0.64002889
H       -1.18351567      -0.98896847      -1.07076115
H        1.59269145      -0.58182971      -1.69495872
H        2.22433553       0.75581996      -0.47499915
14
Frame=4 idx=007956 GeodesicLength=0.16741748597451625 rxn_smarts="[C:1]([C:2]([c:3]1[c:4]([H:13])[n:5]([H:14])[n:6][n:7]1)([H:11])[H:12])([H:8])([H:9])[H:10]>>[C:1]([C:2]([C:3]1=[N:7][N:6]=[N:5][C:4]1([H:13])[H:14])([H:11])[H:12])([H:8])([H:9])[H:10]"
C       -1.78946036       0.79257926      -0.00397258
C       -1.05362007      -0.54499020      -0.07970832
C        0.40161580      -0.41007922       0.21916320
C        1.49022420      -0.30422447      -0.65381337
N        2.63565359      -0.25662992       0.19087484
N        2.19855383      -0.23583562       1.42205216
N        0.87823967      -0.37271875       1.45923288
H       -2.85451153       0.65561675      -0.19645282
H       -1.68095250       1.23581818       0.98674042
H       -1.39977386       1.50100934      -0.73777389
H       -1.48260298      -1.24516441       0.63943077
H       -1.18241643      -0.98761567      -1.07020857
H        1.59070500      -0.59055508      -1.69023093
H        2.24834563       0.76278980      -0.48533379
14
Frame=5 idx=007956 GeodesicLength=0.20904796551579558 rxn_smarts="[C:1]([C:2]([c:3]1[c:4]([H:13])[n:5]([H:14])[n:6][n:7]1)([H:11])[H:12])([H:8])([H:9])[H:10]>>[C:1]([C:2]([C:3]1=[N:7][N:6]=[N:5][C:4]1([H:13])[H:14])([H:11])[H:12])([H:8])([H:9])[H:10]"
C       -1.79306340       0.79224543      -0.00395059
C       -1.05384466      -0.54343383      -0.07910197
C        0.40074436      -0.40505251       0.22098190
C        1.48973250      -0.29372056      -0.65380505
N        2.63169708      -0.25915273       0.19187200
N        2.19990380      -0.24239743       1.42250351
N        0.87666935      -0.37677405       1.46070794
H       -2.85774611       0.65234539      -0.19644802
H       -1.68709304       1.23572440       0.98695075
H       -1.40473460       1.50181888      -0.73733483
H       -1.48207217      -1.24545954       0.63868451
H       -1.18137893      -0.98622073      -1.06976604
H        1.58856756      -0.59922206      -1.68511149
H        2.27261828       0.76929935      -0.49618260
14
Frame=6 idx=007956 GeodesicLength=0.2507148758307943 rxn_smarts="[C:1]([C:2]([c:3]1[c:4]([H:13])[n:5]([H:14])[n:6][n:7]1)([H:11])[H:12])([H:8])([H:9])[H:10]>>[C:1]([C:2]([C:3]1=[N:7][N:6]=[N:5][C:4]1([H:13])[H:14])([H:11])[H:12])([H:8])([H:9])[H:10]"
C       -1.79655622       0.79190288      -0.00390485
C       -1.05413162      -0.54197047      -0.07851532
C        0.39981268      -0.40036084       0.22285694
C        1.48920078      -0.28319170      -0.65369650
N        2.62764095      -0.26105011       0.19293420
N        2.20113534      -0.24853458       1.42298904
N        0.87498604      -0.38122813       1.46219289
H       -2.86087395       0.64921684      -0.19645942
H       -1.69308190       1.23555422       0.98720401
H       -1.40945984       1.50259781      -0.73682313
H       -1.48171989      -1.24583713       0.63785064
H       -1.18039770      -0.98483511      -1.06937968
H        1.58624367      -0.60754819      -1.67964845
H        2.29720166       0.77528451      -0.50760036
14
Frame=7 idx=007956 GeodesicLength=0.2923798771263429 rxn_smarts="[C:1]([C:2]([c:3]1[c:4]([H:13])[n:5]([H:14])[n:6][n:7]1)([H:11])[H:12])([H:8])([H:9])[H:10]>>[C:1]([C:2]([C:3]1=[N:7][N:6]=[N:5][C:4]1([H:13])[H:14])([H:11])[H:12])([H:8])([H:9])[H:10]"
C       -1.79996606       0.79154985      -0.00381518
C       -1.05446983      -0.54057859      -0.07796168
C        0.39882882      -0.39594013       0.22478035
C        1.48864152      -0.27263489      -0.65348721
N        2.62346151      -0.26233941       0.19407583
N        2.20220213      -0.25419255       1.42351562
N        0.87320310      -0.38606381       1.46368068
H       -2.86391885       0.64620174      -0.19647926
H       -1.69896821       1.23527701       0.98753655
H       -1.41399795       1.50338170      -0.73619508
H       -1.48151491      -1.24630785       0.63689781
H       -1.17945636      -0.98341484      -1.06907430
H        1.58376802      -0.61558623      -1.67383364
H        2.32218707       0.78064799      -0.51964050
14
Frame=8 idx=007956 GeodesicLength=0.3340458145582916 rxn_smarts="[C:1]([C:2]([c:3]1[c:4]([H:13])[n:5]([H:14])[n:6][n:7]1)([H:11])[H:12])([H:8])([H:9])[H:10]>>[C:1]([C:2]([C:3]1=[N:7][N:6]=[N:5][C:4]1([H:13])[H:14])([H:11])[H:12])([H:8])([H:9])[H:10]"
C       -1.80333853       0.79117913      -0.00368193
C       -1.05485063      -0.53923670      -0.07743644
C        0.39779545      -0.39170165       0.22675574
C        1.48806184      -0.26201884      -0.65317067
N        2.61917316      -0.26309534       0.19531043
N        2.20311910      -0.25942135       1.42409383
N        0.87132627      -0.39121566       1.46517077
H       -2.86692101       0.64324823      -0.19650996
H       -1.70482280       1.23489265       0.98794717
H       -1.41842516       1.50417674      -0.73545331
H       -1.48142226      -1.24686550       0.63582993
H       -1.17853170      -0.98194822      -1.06884236
H        1.58113508      -0.62326121      -1.66768291
H        2.34770120       0.78526771      -0.53233029
14
Frame=9 idx=007956 GeodesicLength=0.37567499361969087 rxn_smarts="[C:1]([C:2]([c:3]1[c:4]([H:13])[n:5]([H:14])[n:6][n:7]1)([H:11])[H:12])([H:8])([H:9])[H:10]>>[C:1]([C:2]([C:3]1=[N:7][N:6]=[N:5][C:4]1([H:13])[H:14])([H:11])[H:12])([H:8])([H:9])[H:10]"
C       -1.80662369       0.79079832      -0.00350095
C       -1.05528839      -0.53797283      -0.07694254
C        0.39670505      -0.38775063       0.22878125
C        1.48744640      -0.25136470      -0.65274059
N        2.61475842      -0.26317159       0.19664968
N        2.20385467      -0.26412827       1.42473324
N        0.86935509      -0.39680249       1.46665581
H       -2.86983829       0.64041735      -0.19654438
H       -1.71056418       1.23440386       0.98843900
H       -1.42265691       1.50497131      -0.73459384
H       -1.48148833      -1.24751968       0.63464153
H       -1.17765243      -0.98044953      -1.06869091
H        1.57838174      -0.63059278      -1.66120616
H        2.37361084       0.78916166      -0.54568116
14
Frame=10 idx=007956 GeodesicLength=0.4173063958943308 rxn_smarts="[C:1]([C:2]([c:3]1[c:4]([H:13])[n:5]([H:14])[n:6][n:7]1)([H:11])[H:12])([H:8])([H:9])[H:10]>>[C:1]([C:2]([C:3]1=[N:7][N:6]=[N:5][C:4]1([H:13])[H:14])([H:11])[H:12])([H:8])([H:9])[H:10]"
C       -1.80987080       0.79040111      -0.00326723
C       -1.05577431      -0.53676385      -0.07648150
C        0.39556055      -0.38399879       0.23085783
C        1.48680582      -0.24064676      -0.65219275
N        2.61023679      -0.26263321       0.19812078
N        2.20442449      -0.26835007       1.42545594
N        0.86728769      -0.40275936       1.46813391
H       -2.87271590       0.63765656      -0.19657298
H       -1.71626197       1.23380604       0.98901825
H       -1.42677871       1.50577972      -0.73361263
H       -1.48167881      -1.24827088       0.63332464
H       -1.17679492      -0.97889534      -1.06862309
H        1.57551701      -0.63752016      -1.65441543
H        2.40004306       0.79219498      -0.55974575
14
Frame=11 idx=007956 GeodesicLength=0.45889804077229795 rxn_smarts="[C:1]([C:2]([c:3]1[c:4]([H:13])[n:5]([H:14])[n:6][n:7]1)([H:11])[H:12])([H:8])([H:9])[H:10]>>[C:1]([C:2]([C:3]1=[N:7][N:6]=[N:5][C:4]1([H:13])[H:14])([H:11])[H:12])([H:8])([H:9])[H:10]"
C       -1.81301783       0.78999953      -0.00295091
C       -1.05632409      -0.53563389      -0.07608429
C        0.39435073      -0.38057048       0.23297191
C        1.48612580      -0.22993532      -0.65152057
N        2.60558546      -0.26127058       0.19975259
N        2.20477290      -0.27186844       1.42628122
N        0.86511088      -0.40923494       1.46958715
H       -2.87549907       0.63504944      -0.19657569
H       -1.72182694       1.23305905       0.98973503
H       -1.43068130       1.50662497      -0.73243899
H       -1.48204836      -1.24914970       0.63181147
H       -1.17599061      -0.97725388      -1.06869214
H        1.57262100      -0.64418894      -1.64728304
H        2.42682142       0.79437317      -0.57459372
14
Frame=12 idx=007956 GeodesicLength=0.5004906257563542 rxn_smarts="[C:1]([C:2]([c:3]1[c:4]([H:13])[n:5]([H:14])[n:6][n:7]1)([H:11])[H:12])([H:8])([H:9])[H:10]>>[C:1]([C:2]([C:3]1=[N:7][N:6]=[N:5][C:4]1([H:13])[H:14])([H:11])[H:12])([H:8])([H:9])[H:10]"
C       -1.81612855       0.78958633      -0.00255231
C       -1.05692659      -0.53455445      -0.07574374
C        0.39308160      -0.37735183       0.23512743
C        1.48541699      -0.21917219      -0.65072606
N        2.60082695      -0.25916196       0.20155887
N        2.20492637      -0.27477352       1.42722366
N        0.86283629      -0.41614314       1.47101329
H       -2.87824382       0.63253011      -0.19656546
H       -1.72736234       1.23215931       0.99059205
H       -1.43446552       1.50752447      -0.73107346
H       -1.48254961      -1.25014872       0.63011418
H       -1.17520931      -0.97550986      -1.06888797
H        1.56969391      -0.65052854      -1.63982447
H        2.45410365       0.79554397      -0.59025602
14
Frame=13 idx=007956 GeodesicLength=0.5420818976481548 rxn_smarts="[C:1]([C:2]([c:3]1[c:4]([H:13])[n:5]([H:14])[n:6][n:7]1)([H:11])[H:12])([H:8])([H:9])[H:10]>>[C:1]([C:2]([C:3]1=[N:7][N:6]=[N:5][C:4]1([H:13])[H:14])([H:11])[H:12])([H:8])([H:9])[H:10]"
C       -1.81923820       0.78915453      -0.00205918
C       -1.05757209      -0.53350418      -0.07546703
C        0.39175514      -0.37426905       0.23732190
C        1.48468799      -0.20832335      -0.64980674
N        2.59596527      -0.25631663       0.20355496
N        2.20488227      -0.27705663       1.42829621
N        0.86046567      -0.42344291       1.47240240
H       -2.88097718       0.63005561      -0.19654556
H       -1.73293435       1.23108215       0.99161173
H       -1.43818624       1.50850161      -0.72948299
H       -1.48315160      -1.25127089       0.62821194
H       -1.17442732      -0.97363035      -1.06922392
H        1.56674374      -0.65652683      -1.63203818
H        2.48198691       0.79554690      -0.60677556
14
Frame=14 idx=007956 GeodesicLength=0.5836921459454179 rxn_smarts="[C:1]([C:2]([c:3]1[c:4]([H:13])[n:5]([H:14])[n:6][n:7]1)([H:11])[H:12])([H:8])([H:9])[H:10]>>[C:1]([C:2]([C:3]1=[N:7][N:6]=[N:5][C:4]1([H:13])[H:14])([H:11])[H:12])([H:8])([H:9])[H:10]"
C       -1.82231678       0.78871717      -0.00146481
C       -1.05827108      -0.53250497      -0.07525984
C        0.39036572      -0.37139475       0.23955158
C        1.48392456      -0.19739220      -0.64876751
N        2.59099232      -0.25258829       0.20575361
N        2.20461538      -0.27867172       1.42952431
N        0.85799828      -0.43123164       1.47374953
H       -2.88367694       0.62767468      -0.19649639
H       -1.73848391       1.22984232       0.99280520
H       -1.44179711       1.50956053      -0.72767239
H       -1.48388549      -1.25253550       0.62609878
H       -1.17366233      -0.97162861      -1.06971638
H        1.56383495      -0.66222756      -1.62393601
H        2.51036245       0.79438053      -0.62416967
14
Frame=15 idx=007956 GeodesicLength=0.6252338294197178 rxn_smarts="[C:1]([C:2]([c:3]1[c:4]([H:13])[n:5]([H:14])[n:6][n:7]1)([H:11])[H:12])([H:8])([H:9])[H:10]>>[C:1]([C:2]([C:3]1=[N:7][N:6]=[N:5][C:4]1([H:13])[H:14])([H:11])[H:12])([H:8])([H:9])[H:10]"
C       -1.82536869       0.78826203      -0.00071596
C       -1.05901862      -0.53151858      -0.07518018
C        0.38891412      -0.36870871       0.24178266
C        1.48313377      -0.18643758      -0.64760182
N        2.58589303      -0.24783687       0.20822165
N        2.20408319      -0.27936351       1.43090699
N        0.85544025      -0.43954068       1.47498248
H       -2.88634162       0.62539222      -0.19640840
H       -1.74403628       1.22830505       0.99425142
H       -1.44529908       1.51075057      -0.72547819
H       -1.48473249      -1.25395083       0.62362799
H       -1.17291593      -0.96936161      -1.07043820
H        1.56102292      -0.66781123      -1.61538624
H        2.53922543       0.79181973      -0.64256421
14
Frame=16 idx=007956 GeodesicLength=0.6668058353638149 rxn_smarts="[C:1]([C:2]([c:3]1[c:4]([H:13])[n:5]([H:14])[n:6][n:7]1)([H:11])[H:12])([H:8])([H:9])[H:10]>>[C:1]([C:2]([C:3]1=[N:7][N:6]=[N:5][C:4]1([H:13])[H:14])([H:11])[H:12])([H:8])([H:9])[H:10]"
C       -1.82841839       0.78780215       0.00018770
C       -1.05981270      -0.53055718      -0.07521747
C        0.38739995      -0.36618396       0.24402117
C        1.48232222      -0.17540348      -0.64633253
N        2.58067345      -0.24202420       0.21095333
N        2.20327464      -0.27921036       1.43248838
N        0.85278809      -0.44836221       1.47612504
H       -2.88899549       0.62319220      -0.19626840
H       -1.74962682       1.22651903       0.99596543
H       -1.44872927       1.51209825      -0.72293910
H       -1.48568660      -1.25554651       0.62083983
H       -1.17216768      -0.96687102      -1.07139715
H        1.55835378      -0.67323487      -1.60646274
H        2.56862480       0.78778215      -0.66196349
