13
Frame=0 idx=002034 GeodesicLength=0.0 rxn_smarts="[O:1]=[C:2]1[C:3]([H:7])([H:8])[C:4]([H:9])([H:10])[C:5]([H:11])([H:12])[N:6]1[H:13]>>[O:1]1[C:2](=[C:3]([H:7])[H:8])[N:6]([H:13])[C:5]([H:11])([H:12])[C:4]1([H:9])[H:10]"
O        1.38817620       0.12285174       1.26357573
C        1.14924203       0.22554176       0.04764717
C        1.45113603      -0.72241189      -0.91731700
C       -1.03047767      -0.63392831       0.81115074
C       -1.08132287       0.71372168       0.24612550
N        0.16231639       1.20289688      -0.30391672
H        1.24877482      -0.55148316      -1.96689548
H        2.07236342      -1.56575501      -0.64588946
H       -1.96143584      -1.00848512       1.23058034
H       -0.14259582      -1.21530448       0.97898898
H       -1.87488436       0.76209274      -0.50977034
H       -1.46333296       1.34960787       1.06900998
H        0.08204068       1.32065524      -1.30328942
13
Frame=1 idx=002034 GeodesicLength=0.0758260023708401 rxn_smarts="[O:1]=[C:2]1[C:3]([H:7])([H:8])[C:4]([H:9])([H:10])[C:5]([H:11])([H:12])[N:6]1[H:13]>>[O:1]1[C:2](=[C:3]([H:7])[H:8])[N:6]([H:13])[C:5]([H:11])([H:12])[C:4]1([H:9])[H:10]"
O        1.38388368       0.12963807       1.26159165
C        1.15078876       0.23662028       0.04220421
C        1.41820456      -0.73801185      -0.90946681
C       -1.00505510      -0.63794482       0.79706836
C       -1.08410782       0.71526040       0.23947528
N        0.16137798       1.20907843      -0.30166210
H        1.24863477      -0.55599332      -1.96333078
H        2.05079508      -1.57257533      -0.63662868
H       -1.93194069      -1.00926260       1.23063493
H       -0.13874446      -1.24221223       0.99591552
H       -1.87400201       0.75573420      -0.52032747
H       -1.47146055       1.34804208       1.06095146
H        0.09162580       1.36162670      -1.29642557
13
Frame=2 idx=002034 GeodesicLength=0.15181028708605565 rxn_smarts="[O:1]=[C:2]1[C:3]([H:7])([H:8])[C:4]([H:9])([H:10])[C:5]([H:11])([H:12])[N:6]1[H:13]>>[O:1]1[C:2](=[C:3]([H:7])[H:8])[N:6]([H:13])[C:5]([H:11])([H:12])[C:4]1([H:9])[H:10]"
O        1.37984691       0.13607000       1.25963659
C        1.15289630       0.24784767       0.03675062
C        1.38748764      -0.75136550      -0.90140011
C       -0.97896621      -0.64151429       0.78390056
C       -1.08653859       0.71640622       0.23270705
N        0.16075277       1.21530811      -0.29914884
H        1.24359870      -0.56366352      -1.95854816
H        2.02991116      -1.57832242      -0.62774088
H       -1.90260807      -1.00997820       1.22926781
H       -0.13594572      -1.26891959       1.01169608
H       -1.87227824       0.74845048      -0.53143169
H       -1.47984318       1.34644597       1.05219229
H        0.10168654       1.40323508      -1.28788135
13
Frame=3 idx=002034 GeodesicLength=0.2279066246274441 rxn_smarts="[O:1]=[C:2]1[C:3]([H:7])([H:8])[C:4]([H:9])([H:10])[C:5]([H:11])([H:12])[N:6]1[H:13]>>[O:1]1[C:2](=[C:3]([H:7])[H:8])[N:6]([H:13])[C:5]([H:11])([H:12])[C:4]1([H:9])[H:10]"
O        1.37612785       0.14221246       1.25750910
C        1.15539046       0.25904686       0.03111673
C        1.35856385      -0.76303075      -0.89323259
C       -0.95239726      -0.64458423       0.77194501
C       -1.08870962       0.71712451       0.22590246
N        0.16027195       1.22136703      -0.29660663
H        1.23567154      -0.57317907      -1.95304421
H        2.00949502      -1.58340837      -0.61917299
H       -1.87363053      -1.01040979       1.22704664
H       -0.13433933      -1.29542510       1.02641332
H       -1.86991981       0.74021152      -0.54284479
H       -1.48837682       1.34493686       1.04276921
H        0.11185270       1.44513807      -1.27780124
13
Frame=4 idx=002034 GeodesicLength=0.30407334422106724 rxn_smarts="[O:1]=[C:2]1[C:3]([H:7])([H:8])[C:4]([H:9])([H:10])[C:5]([H:11])([H:12])[N:6]1[H:13]>>[O:1]1[C:2](=[C:3]([H:7])[H:8])[N:6]([H:13])[C:5]([H:11])([H:12])[C:4]1([H:9])[H:10]"
O        1.37278700       0.14814171       1.25507235
C        1.15815221       0.27011066       0.02518511
C        1.33114045      -0.77339482      -0.88504205
C       -0.92548763      -0.64713750       0.76135980
C       -1.09067926       0.71740256       0.21912272
N        0.15982931       1.22712464      -0.29418830
H        1.22613708      -0.58378707      -1.94714677
H        1.98945304      -1.58807304      -0.61086219
H       -1.84514232      -1.01043292       1.22431808
H       -0.13401324      -1.32171799       1.04009401
H       -1.86707002       0.73104071      -0.55438644
H       -1.49698034       1.34357710       1.03273671
H        0.12187372       1.48714597      -1.26626304
13
Frame=5 idx=002034 GeodesicLength=0.38028243337727974 rxn_smarts="[O:1]=[C:2]1[C:3]([H:7])([H:8])[C:4]([H:9])([H:10])[C:5]([H:11])([H:12])[N:6]1[H:13]>>[O:1]1[C:2](=[C:3]([H:7])[H:8])[N:6]([H:13])[C:5]([H:11])([H:12])[C:4]1([H:9])[H:10]"
O        1.36988781       0.15394631       1.25223136
C        1.16110589       0.28098939       0.01887595
C        1.30503326      -0.78272241      -0.87687871
C       -0.89832447      -0.64917529       0.75221117
C       -1.09247546       0.71723702       0.21240257
N        0.15936601       1.23251762      -0.29199493
H        1.21570186      -0.59511382      -1.94101866
H        1.96976785      -1.59244661      -0.60273767
H       -1.81723480      -1.00999482       1.22127796
H       -0.13501562      -1.34779035       1.05270745
H       -1.86381134       0.72097802      -0.56593953
H       -1.50559732       1.34238833       1.02214115
H        0.13159635       1.52918660      -1.25327810
13
Frame=6 idx=002034 GeodesicLength=0.45650329750680574 rxn_smarts="[O:1]=[C:2]1[C:3]([H:7])([H:8])[C:4]([H:9])([H:10])[C:5]([H:11])([H:12])[N:6]1[H:13]>>[O:1]1[C:2](=[C:3]([H:7])[H:8])[N:6]([H:13])[C:5]([H:11])([H:12])[C:4]1([H:9])[H:10]"
O        1.36747968       0.15972359       1.24891870
C        1.16419120       0.29164678       0.01212762
C        1.28010235      -0.79121670      -0.86876238
C       -0.87099322      -0.65071912       0.74447954
C       -1.09411960       0.71663241       0.20576679
N        0.15883970       1.23750207      -0.29011365
H        1.20483247      -0.60696724      -1.93478888
H        1.95046267      -1.59660117      -0.59473084
H       -1.78996292      -1.00907569       1.21803926
H       -0.13736746      -1.37361737       1.06425158
H       -1.86022096       0.71009713      -0.57739572
H       -1.51416515       1.34136433       1.01103800
H        0.14092124       1.57123098      -1.23883003
13
Frame=7 idx=002034 GeodesicLength=0.5327092101652853 rxn_smarts="[O:1]=[C:2]1[C:3]([H:7])([H:8])[C:4]([H:9])([H:10])[C:5]([H:11])([H:12])[N:6]1[H:13]>>[O:1]1[C:2](=[C:3]([H:7])[H:8])[N:6]([H:13])[C:5]([H:11])([H:12])[C:4]1([H:9])[H:10]"
O        1.36561632       0.16557656       1.24508126
C        1.16736794       0.30207022       0.00488501
C        1.25625182      -0.79903693      -0.86070502
C       -0.84354344      -0.65179163       0.73813111
C       -1.09561902       0.71559456       0.19922790
N        0.15822476       1.24205440      -0.28862712
H        1.19378243      -0.61928172      -1.92851826
H        1.93157726      -1.60057792      -0.58677370
H       -1.76337098      -1.00767950       1.21466299
H       -0.14108906      -1.39916030       1.07468936
H       -1.85635064       0.69845111      -0.58867965
H       -1.52263200       1.34048651       0.99946757
H        0.14978461       1.61329465      -1.22284146
13
Frame=8 idx=002034 GeodesicLength=0.6088693520843735 rxn_smarts="[O:1]=[C:2]1[C:3]([H:7])([H:8])[C:4]([H:9])([H:10])[C:5]([H:11])([H:12])[N:6]1[H:13]>>[O:1]1[C:2](=[C:3]([H:7])[H:8])[N:6]([H:13])[C:5]([H:11])([H:12])[C:4]1([H:9])[H:10]"
O        1.36433568       0.17159706       1.24068048
C        1.17059949       0.31224469      -0.00289751
C        1.23340387      -0.80631703      -0.85269992
C       -0.81602645      -0.65239663       0.73311444
C       -1.09698048       0.71413583       0.19279701
N        0.15750606       1.24615887      -0.28760699
H        1.18272760      -0.63204180      -1.92224495
H        1.91315058      -1.60440436      -0.57879409
H       -1.73745569      -1.00581003       1.21118641
H       -0.14618301      -1.42439863       1.08396051
H       -1.85225055       0.68609339      -0.59972060
H       -1.53095542       1.33973859       0.98746446
H        0.15812832       1.65540004      -1.20523924
13
Frame=9 idx=002034 GeodesicLength=0.685027845700557 rxn_smarts="[O:1]=[C:2]1[C:3]([H:7])([H:8])[C:4]([H:9])([H:10])[C:5]([H:11])([H:12])[N:6]1[H:13]>>[O:1]1[C:2](=[C:3]([H:7])[H:8])[N:6]([H:13])[C:5]([H:11])([H:12])[C:4]1([H:9])[H:10]"
O        1.36363337       0.17784566       1.23571494
C        1.17382537       0.32217994      -0.01119916
C        1.21149567      -0.81309716      -0.84481621
C       -0.78836551      -0.65247613       0.72948768
C       -1.09819900       0.71228720       0.18646769
N        0.15667102       1.24985193      -0.28703036
H        1.17160712      -0.64526619      -1.91591846
H        1.89516769      -1.60807156      -0.57078461
H       -1.71211870      -1.00344638       1.20768600
H       -0.15264625      -1.44937085       1.09189428
H       -1.84787617       0.67297706      -0.61060093
H       -1.53923233       1.33914654       0.97501452
H        0.16603772       1.69743995      -1.18591537
13
Frame=10 idx=002034 GeodesicLength=0.7611184996126314 rxn_smarts="[O:1]=[C:2]1[C:3]([H:7])([H:8])[C:4]([H:9])([H:10])[C:5]([H:11])([H:12])[N:6]1[H:13]>>[O:1]1[C:2](=[C:3]([H:7])[H:8])[N:6]([H:13])[C:5]([H:11])([H:12])[C:4]1([H:9])[H:10]"
O        1.36358605       0.18445195       1.23009950
C        1.17703540       0.33185951      -0.02013834
C        1.19044850      -0.81957121      -0.83698217
C       -0.76066315      -0.65213271       0.72709333
C       -1.09928636       0.71002592       0.18024939
N        0.15568779       1.25307368      -0.28708375
H        1.16070840      -0.65897919      -1.90962964
H        1.87771746      -1.61162732      -0.56263330
H       -1.68743986      -1.00062636       1.20410248
H       -0.16052519      -1.47391468       1.09857791
H       -1.84336641       0.65922541      -0.62113845
H       -1.54728812       1.33864911       0.96220059
H        0.17338550       1.73956589      -1.16471755
13
Frame=11 idx=002034 GeodesicLength=0.8371420452735585 rxn_smarts="[O:1]=[C:2]1[C:3]([H:7])([H:8])[C:4]([H:9])([H:10])[C:5]([H:11])([H:12])[N:6]1[H:13]>>[O:1]1[C:2](=[C:3]([H:7])[H:8])[N:6]([H:13])[C:5]([H:11])([H:12])[C:4]1([H:9])[H:10]"
O        1.36420913       0.19149610       1.22378973
C        1.18019988       0.34129163      -0.02976048
C        1.17021871      -0.82582489      -0.82918730
C       -0.73291523      -0.65139317       0.72585371
C       -1.10023807       0.70735784       0.17413682
N        0.15454676       1.25582880      -0.28783091
H        1.15005461      -0.67324098      -1.90336313
H        1.86084124      -1.61506858      -0.55429380
H       -1.66340474      -0.99735663       1.20043500
H       -0.16983648      -1.49795539       1.10397393
H       -1.83875517       0.64487414      -0.63129187
H       -1.55509543       1.33821350       0.94905321
H        0.18017480       1.78177761      -1.14151491
13
Frame=12 idx=002034 GeodesicLength=0.9130932456708754 rxn_smarts="[O:1]=[C:2]1[C:3]([H:7])([H:8])[C:4]([H:9])([H:10])[C:5]([H:11])([H:12])[N:6]1[H:13]>>[O:1]1[C:2](=[C:3]([H:7])[H:8])[N:6]([H:13])[C:5]([H:11])([H:12])[C:4]1([H:9])[H:10]"
O        1.36551761       0.19905955       1.21674978
C        1.18328745       0.35047968      -0.04011561
C        1.15076137      -0.83194008      -0.82142366
C       -0.70510976      -0.65027207       0.72571245
C       -1.10105033       0.70427348       0.16811053
N        0.15323128       1.25811668      -0.28936862
H        1.13963916      -0.68812503      -1.89711349
H        1.84456211      -1.61840502      -0.54571633
H       -1.63995756      -0.99360854       1.19670267
H       -0.18059799      -1.52138681       1.10800295
H       -1.83407422       0.62989458      -0.64104831
H       -1.56263515       1.33781419       0.93556520
H        0.18642603       1.82409938      -1.11605757
13
Frame=13 idx=002034 GeodesicLength=0.9889772079583906 rxn_smarts="[O:1]=[C:2]1[C:3]([H:7])([H:8])[C:4]([H:9])([H:10])[C:5]([H:11])([H:12])[N:6]1[H:13]>>[O:1]1[C:2](=[C:3]([H:7])[H:8])[N:6]([H:13])[C:5]([H:11])([H:12])[C:4]1([H:9])[H:10]"
O        1.36749527       0.20720326       1.20894929
C        1.18626198       0.35942006      -0.05124982
C        1.13205750      -0.83797770      -0.81369555
C       -0.67722671      -0.64879873       0.72658710
C       -1.10172550       0.70075944       0.16214240
N        0.15171796       1.25992772      -0.29179330
H        1.12948518      -0.70369947      -1.89086410
H        1.82892346      -1.62163625      -0.53685834
H       -1.61703278      -0.98928973       1.19302933
H       -0.19284823      -1.54411749       1.11052480
H       -1.82937072       0.61427249      -0.65039731
H       -1.56989477       1.33742067       0.92172514
H        0.19215736       1.86651573      -1.08809965
13
Frame=14 idx=002034 GeodesicLength=1.0647870248448945 rxn_smarts="[O:1]=[C:2]1[C:3]([H:7])([H:8])[C:4]([H:9])([H:10])[C:5]([H:11])([H:12])[N:6]1[H:13]>>[O:1]1[C:2](=[C:3]([H:7])[H:8])[N:6]([H:13])[C:5]([H:11])([H:12])[C:4]1([H:9])[H:10]"
O        1.37009471       0.21598383       1.20032863
C        1.18908400       0.36810044      -0.06321900
C        1.11409931      -0.84399946      -0.80599392
C       -0.64929794      -0.64702202       0.72830710
C       -1.10227486       0.69680752       0.15618561
N        0.14998061       1.26124232      -0.29523627
H        1.11963640      -0.72004197      -1.88459319
H        1.81398180      -1.62474064      -0.52768259
H       -1.59456607      -0.98429222       1.18958145
H       -0.20657724      -1.56606410       1.11146649
H       -1.82471379       0.59804598      -0.65932570
H       -1.57684077       1.33698374       0.90752956
H        0.19739383       1.90899657      -1.05734818
13
Frame=15 idx=002034 GeodesicLength=1.140518886614276 rxn_smarts="[O:1]=[C:2]1[C:3]([H:7])([H:8])[C:4]([H:9])([H:10])[C:5]([H:11])([H:12])[N:6]1[H:13]>>[O:1]1[C:2](=[C:3]([H:7])[H:8])[N:6]([H:13])[C:5]([H:11])([H:12])[C:4]1([H:9])[H:10]"
O        1.37324418       0.22544628       1.19082871
C        1.19170512       0.37650023      -0.07608218
C        1.09688659      -0.85006007      -0.79832838
C       -0.62134536      -0.64500691       0.73069735
C       -1.10271556       0.69239999       0.15017236
N        0.14798388       1.26202862      -0.29985651
H        1.11015214      -0.73721541      -1.87829488
H        1.79979376      -1.62770239      -0.51815981
H       -1.57245562      -0.97843351       1.18660741
H       -0.22178526      -1.58711059       1.11072238
H       -1.82018265       0.58121714      -0.66785410
H       -1.58344953       1.33646454       0.89294630
H        0.20216830       1.95147207      -1.02339865
13
Frame=16 idx=002034 GeodesicLength=1.216173207577315 rxn_smarts="[O:1]=[C:2]1[C:3]([H:7])([H:8])[C:4]([H:9])([H:10])[C:5]([H:11])([H:12])[N:6]1[H:13]>>[O:1]1[C:2](=[C:3]([H:7])[H:8])[N:6]([H:13])[C:5]([H:11])([H:12])[C:4]1([H:9])[H:10]"
O        1.37684604       0.23563976       1.18041109
C        1.19406823       0.38460155      -0.08991758
C        1.08042709      -0.85622074      -0.79073942
C       -0.59339681      -0.64284501       0.73356850
C       -1.10307498       0.68751298       0.14398922
N        0.14567409       1.26225129      -0.30589580
H        1.10111396      -0.75529381      -1.87200125
H        1.78641889      -1.63052015      -0.50826397
H       -1.55054625      -0.97146606       1.18449544
H       -0.23847572      -1.60713396       1.10817014
H       -1.81587686       0.56375695      -0.67607505
H       -1.58970546       1.33585242       0.87791387
H        0.20652780       1.99386476      -0.98565521
