12
Frame=0 idx=001073 GeodesicLength=0.0 rxn_smarts="[N:1]([c:2]1[c:3]([H:9])[c:4]([H:10])[c:5]([H:11])[n:6]1[H:12])([H:7])[H:8]>>[N:1](/[C:3](=[C:2]1/[C:4]([H:10])=[C:5]([H:11])[N:6]1[H:12])[H:9])([H:7])[H:8]"
N        2.07410952       0.28629552       0.21182535
C        0.47592916       0.00072480      -0.19729445
C        1.00598643       1.15946286      -0.28671384
C       -2.13416795       0.50570906      -0.30458672
C       -1.75222988      -0.67960107       0.13649744
N       -0.28671904      -1.02036344       0.02796426
H        2.77727670      -0.04589413      -0.43016923
H        2.37008868       0.35889809       1.17777919
H        0.93415721       2.20866348      -0.49299541
H       -3.20411494       0.65108284      -0.10616120
H       -2.24676440      -1.51678638       0.63165260
H       -0.01355154      -1.90819167      -0.36779795
12
Frame=1 idx=001073 GeodesicLength=0.1413009012766157 rxn_smarts="[N:1]([c:2]1[c:3]([H:9])[c:4]([H:10])[c:5]([H:11])[n:6]1[H:12])([H:7])[H:8]>>[N:1](/[C:3](=[C:2]1/[C:4]([H:10])=[C:5]([H:11])[N:6]1[H:12])[H:9])([H:7])[H:8]"
N        2.05643679       0.28855063       0.20264535
C        0.46143092      -0.02109025      -0.22642696
C        0.93864529       1.16590850      -0.23166885
C       -2.06102631       0.51506200      -0.30116619
C       -1.74352939      -0.70235924       0.10970876
N       -0.28543865      -1.05136661       0.03828875
H        2.74933849      -0.01556483      -0.46368794
H        2.38221154       0.36380485       1.15798790
H        0.88396694       2.20690130      -0.48027564
H       -3.12014497       0.72660074      -0.11129497
H       -2.27152413      -1.51985529       0.60101709
H        0.00963345      -1.95659179      -0.29512731
12
Frame=2 idx=001073 GeodesicLength=0.283060517454889 rxn_smarts="[N:1]([c:2]1[c:3]([H:9])[c:4]([H:10])[c:5]([H:11])[n:6]1[H:12])([H:7])[H:8]>>[N:1](/[C:3](=[C:2]1/[C:4]([H:10])=[C:5]([H:11])[N:6]1[H:12])[H:9])([H:7])[H:8]"
N        2.03971763       0.28957174       0.19361978
C        0.44665979      -0.03812885      -0.25338076
C        0.87612715       1.16760135      -0.18279458
C       -1.99456415       0.52122203      -0.29765410
C       -1.73511101      -0.72178235       0.08440790
N       -0.28504185      -1.07695094       0.04617709
H        2.72095158       0.00649390      -0.49342587
H        2.39463299       0.37594605       1.13681845
H        0.83846465       2.20114910      -0.46476398
H       -3.03865139       0.79426331      -0.11090648
H       -2.29472467      -1.52397691       0.56369971
H        0.03153928      -1.99540844      -0.22179715
12
Frame=3 idx=001073 GeodesicLength=0.4248994939769013 rxn_smarts="[N:1]([c:2]1[c:3]([H:9])[c:4]([H:10])[c:5]([H:11])[n:6]1[H:12])([H:7])[H:8]>>[N:1](/[C:3](=[C:2]1/[C:4]([H:10])=[C:5]([H:11])[N:6]1[H:12])[H:9])([H:7])[H:8]"
N        2.02456839       0.28900129       0.18454306
C        0.43197309      -0.05172180      -0.27820388
C        0.81898605       1.16559571      -0.14102695
C       -1.93339684       0.52567433      -0.29079786
C       -1.72659572      -0.73756747       0.06438908
N       -0.28530205      -1.09894978       0.05116413
H        2.69331749       0.01999948      -0.51996339
H        2.40758385       0.39469893       1.11392378
H        0.79645384       2.19441728      -0.44301512
H       -2.96231906       0.85242051      -0.11413121
H       -2.31591198      -1.52762495       0.52571928
H        0.05064294      -2.02594353      -0.15260094
12
Frame=4 idx=001073 GeodesicLength=0.5668031823160941 rxn_smarts="[N:1]([c:2]1[c:3]([H:9])[c:4]([H:10])[c:5]([H:11])[n:6]1[H:12])([H:7])[H:8]>>[N:1](/[C:3](=[C:2]1/[C:4]([H:10])=[C:5]([H:11])[N:6]1[H:12])[H:9])([H:7])[H:8]"
N        2.01049362       0.28715399       0.17608480
C        0.41724766      -0.06252906      -0.30139374
C        0.76614603       1.16130817      -0.10492458
C       -1.87703677       0.52869638      -0.28134565
C       -1.71816008      -0.75099456       0.04768411
N       -0.28604135      -1.11841106       0.05327422
H        2.66655702       0.02628435      -0.54306597
H        2.42008816       0.41897617       1.08992724
H        0.75792125       2.18714325      -0.41951707
H       -2.88956161       0.90450541      -0.11572562
H       -2.33588771      -1.53237668       0.48373981
H        0.06823378      -2.04975637      -0.08473756
12
Frame=5 idx=001073 GeodesicLength=0.7086721847491819 rxn_smarts="[N:1]([c:2]1[c:3]([H:9])[c:4]([H:10])[c:5]([H:11])[n:6]1[H:12])([H:7])[H:8]>>[N:1](/[C:3](=[C:2]1/[C:4]([H:10])=[C:5]([H:11])[N:6]1[H:12])[H:9])([H:7])[H:8]"
N        1.99748824       0.28389140       0.16812515
C        0.40243571      -0.07074978      -0.32339429
C        0.71674380       1.15557731      -0.07158369
C       -1.82507050       0.53020851      -0.27061759
C       -1.70977674      -0.76248500       0.03462219
N       -0.28708484      -1.13617852       0.05147881
H        2.64058377       0.02734271      -0.56402598
H        2.43254011       0.44609086       1.06443846
H        0.72235878       2.17982501      -0.39336045
H       -2.82063656       0.95076757      -0.11902961
H       -2.35399720      -1.53675791       0.44175682
H        0.08441541      -2.06753216      -0.01840983
12
Frame=6 idx=001073 GeodesicLength=0.8504520343431671 rxn_smarts="[N:1]([c:2]1[c:3]([H:9])[c:4]([H:10])[c:5]([H:11])[n:6]1[H:12])([H:7])[H:8]>>[N:1](/[C:3](=[C:2]1/[C:4]([H:10])=[C:5]([H:11])[N:6]1[H:12])[H:9])([H:7])[H:8]"
N        1.98557162       0.27916038       0.16056326
C        0.38747235      -0.07647126      -0.34420212
C        0.67034532       1.14881020      -0.03938428
C       -1.77693304       0.53066013      -0.25787075
C       -1.70137160      -0.77222664       0.02618845
N       -0.28828322      -1.15291389       0.04528783
H        2.61522118       0.02426885      -0.58362626
H        2.44527903       0.47480237       1.03698633
H        0.68954962       2.17249060      -0.36445030
H       -2.75590663       0.99169398      -0.12652562
H       -2.37036992      -1.54086036       0.40038113
H        0.09942528      -2.07941437       0.04665234
12
Frame=7 idx=001073 GeodesicLength=0.9920241555310332 rxn_smarts="[N:1]([c:2]1[c:3]([H:9])[c:4]([H:10])[c:5]([H:11])[n:6]1[H:12])([H:7])[H:8]>>[N:1](/[C:3](=[C:2]1/[C:4]([H:10])=[C:5]([H:11])[N:6]1[H:12])[H:9])([H:7])[H:8]"
N        1.97464002       0.27287000       0.15332747
C        0.37237240      -0.07970858      -0.36446217
C        0.62637564       1.14108926      -0.00681630
C       -1.73234776       0.52995628      -0.24436545
C       -1.69278112      -0.78052753       0.02309156
N       -0.28944332      -1.16955271       0.03264892
H        2.59048959       0.01845733      -0.60247573
H        2.45804221       0.50349474       1.00755996
H        0.65890892       2.16536534      -0.33124142
H       -2.69511097       1.02781169      -0.14085991
H       -2.38447720      -1.54373035       0.36326385
H        0.11333158      -2.08552548       0.11032922
12
Frame=8 idx=001073 GeodesicLength=1.1333892346684695 rxn_smarts="[N:1]([c:2]1[c:3]([H:9])[c:4]([H:10])[c:5]([H:11])[n:6]1[H:12])([H:7])[H:8]>>[N:1](/[C:3](=[C:2]1/[C:4]([H:10])=[C:5]([H:11])[N:6]1[H:12])[H:9])([H:7])[H:8]"
N        1.96462592       0.26498807       0.14629362
C        0.35710879      -0.08049642      -0.38440215
C        0.58442173       1.13225317       0.02694916
C       -1.69097013       0.52813149      -0.23048730
C       -1.68370862      -0.78764037       0.02580124
N       -0.29040807      -1.18672646       0.01233118
H        2.56627333       0.01071534      -0.62105404
H        2.47064006       0.53132951       0.97610012
H        0.62992710       2.15827926      -0.29301715
H       -2.63756898       1.05941830      -0.16308234
H       -2.39630916      -1.54517219       0.33122214
H        0.12596804      -2.08507971       0.17334553
12
Frame=9 idx=001073 GeodesicLength=1.2741348967095136 rxn_smarts="[N:1]([c:2]1[c:3]([H:9])[c:4]([H:10])[c:5]([H:11])[n:6]1[H:12])([H:7])[H:8]>>[N:1](/[C:3](=[C:2]1/[C:4]([H:10])=[C:5]([H:11])[N:6]1[H:12])[H:9])([H:7])[H:8]"
N        1.95625185       0.25565191       0.13892482
C        0.34158699      -0.07946453      -0.40388952
C        0.54415198       1.12176946       0.06269320
C       -1.65309660       0.52472018      -0.21803858
C       -1.67426595      -0.79464921       0.03110266
N       -0.29078247      -1.20486881      -0.01554184
H        2.54243854       0.00131360      -0.64036785
H        2.48482832       0.55889904       0.94165525
H        0.60169363       2.15056968      -0.24901534
H       -2.58220992       1.08720610      -0.18924015
H       -2.40657474      -1.54545251       0.30065422
H        0.13597837      -2.07569491       0.24106314
12
Frame=10 idx=001073 GeodesicLength=1.4165808074766866 rxn_smarts="[N:1]([c:2]1[c:3]([H:9])[c:4]([H:10])[c:5]([H:11])[n:6]1[H:12])([H:7])[H:8]>>[N:1](/[C:3](=[C:2]1/[C:4]([H:10])=[C:5]([H:11])[N:6]1[H:12])[H:9])([H:7])[H:8]"
N        1.94878462       0.24576097       0.13047063
C        0.32532843      -0.07655460      -0.41673186
C        0.50703606       1.11042004       0.10012353
C       -1.61613024       0.52159615      -0.19364964
C       -1.66365625      -0.80057009       0.04815482
N       -0.29197607      -1.22062253      -0.03468660
H        2.51671731      -0.01126366      -0.66134379
H        2.49994434       0.58908779       0.89983056
H        0.57673136       2.14128887      -0.20420375
H       -2.52795291       1.10936314      -0.22711330
H       -2.41800224      -1.54919209       0.25564873
H        0.14317559      -2.05931399       0.30350066
12
Frame=11 idx=001073 GeodesicLength=1.5586831933213536 rxn_smarts="[N:1]([c:2]1[c:3]([H:9])[c:4]([H:10])[c:5]([H:11])[n:6]1[H:12])([H:7])[H:8]>>[N:1](/[C:3](=[C:2]1/[C:4]([H:10])=[C:5]([H:11])[N:6]1[H:12])[H:9])([H:7])[H:8]"
N        1.94264407       0.23632627       0.12415948
C        0.30947880      -0.07393498      -0.42791961
C        0.47072203       1.09794945       0.13695908
C       -1.58229301       0.51576926      -0.17724644
C       -1.65350407      -0.80893912       0.05638840
N       -0.29188382      -1.23598236      -0.05106514
H        2.49198740      -0.02630923      -0.67863529
H        2.51434679       0.62295049       0.85688743
H        0.55162666       2.13064836      -0.16007353
H       -2.47236121       1.12947305      -0.25678022
H       -2.42690211      -1.54779699       0.21775566
H        0.14613847      -2.04015418       0.35957020
12
Frame=12 idx=001073 GeodesicLength=1.7011153513419597 rxn_smarts="[N:1]([c:2]1[c:3]([H:9])[c:4]([H:10])[c:5]([H:11])[n:6]1[H:12])([H:7])[H:8]>>[N:1](/[C:3](=[C:2]1/[C:4]([H:10])=[C:5]([H:11])[N:6]1[H:12])[H:9])([H:7])[H:8]"
N        1.93711090       0.22691241       0.11896762
C        0.29369949      -0.07012147      -0.43530640
C        0.43593900       1.08526921       0.17435746
C       -1.55031813       0.51016911      -0.15758210
C       -1.64366424      -0.81690094       0.06801811
N       -0.29194992      -1.24941308      -0.06094139
H        2.46714793      -0.04361703      -0.69413050
H        2.52666161       0.65864345       0.81031590
H        0.52808849       2.11953223      -0.11624892
H       -2.41673591       1.14623613      -0.29240386
H       -2.43517349      -1.54501438       0.18007269
H        0.14919425      -2.02169562       0.40488139
12
Frame=13 idx=001073 GeodesicLength=1.8436535097157944 rxn_smarts="[N:1]([c:2]1[c:3]([H:9])[c:4]([H:10])[c:5]([H:11])[n:6]1[H:12])([H:7])[H:8]>>[N:1](/[C:3](=[C:2]1/[C:4]([H:10])=[C:5]([H:11])[N:6]1[H:12])[H:9])([H:7])[H:8]"
N        1.93234927       0.21798841       0.11615204
C        0.27901074      -0.06629182      -0.44230348
C        0.40171869       1.07191787       0.21007484
C       -1.52024244       0.50332279      -0.14599070
C       -1.63402419      -0.82563941       0.07223322
N       -0.29109199      -1.26210629      -0.07006629
H        2.44389914      -0.06298489      -0.70513132
H        2.53572712       0.69647028       0.76291693
H        0.50500898       2.10745151      -0.07424056
H       -2.36099842       1.16233233      -0.31873681
H       -2.44132536      -1.53970266       0.14968305
H        0.14996847      -2.00275813       0.44540909
12
Frame=14 idx=001073 GeodesicLength=1.9857750320542238 rxn_smarts="[N:1]([c:2]1[c:3]([H:9])[c:4]([H:10])[c:5]([H:11])[n:6]1[H:12])([H:7])[H:8]>>[N:1](/[C:3](=[C:2]1/[C:4]([H:10])=[C:5]([H:11])[N:6]1[H:12])[H:9])([H:7])[H:8]"
N        1.92861362       0.20932058       0.11502028
C        0.26515609      -0.06170487      -0.44781893
C        0.36835103       1.05842921       0.24539378
C       -1.49192348       0.49664033      -0.13654788
C       -1.62467171      -0.83405389       0.07531888
N       -0.28988599      -1.27373033      -0.07753861
H        2.42192915      -0.08407943      -0.71313142
H        2.54212386       0.73507778       0.71331874
H        0.48283871       2.09521185      -0.03259950
H       -2.30637382       1.17686088      -0.34460445
H       -2.44654299      -1.53322489       0.12347423
H        0.15038554      -1.98474723       0.47971488
12
Frame=15 idx=001073 GeodesicLength=2.127960862354587 rxn_smarts="[N:1]([c:2]1[c:3]([H:9])[c:4]([H:10])[c:5]([H:11])[n:6]1[H:12])([H:7])[H:8]>>[N:1](/[C:3](=[C:2]1/[C:4]([H:10])=[C:5]([H:11])[N:6]1[H:12])[H:9])([H:7])[H:8]"
N        1.92581347       0.20101416       0.11535166
C        0.25207960      -0.05647453      -0.45189993
C        0.33572678       1.04471606       0.28039235
C       -1.46499339       0.49010258      -0.12874080
C       -1.61537237      -0.84204039       0.07760172
N       -0.28838972      -1.28423692      -0.08359425
H        2.40082344      -0.10719919      -0.71826182
H        2.54554577       0.77453631       0.66066666
H        0.46144697       2.08259586       0.00890939
H       -2.25248704       1.18992654      -0.36933702
H       -2.45082968      -1.52568575       0.09916612
H        0.15063618      -1.96725473       0.50974592
12
Frame=16 idx=001073 GeodesicLength=2.2705933460140866 rxn_smarts="[N:1]([c:2]1[c:3]([H:9])[c:4]([H:10])[c:5]([H:11])[n:6]1[H:12])([H:7])[H:8]>>[N:1](/[C:3](=[C:2]1/[C:4]([H:10])=[C:5]([H:11])[N:6]1[H:12])[H:9])([H:7])[H:8]"
N        1.92382846       0.19324028       0.11703055
C        0.24009758      -0.05074224      -0.45513250
C        0.30359326       1.03063798       0.31450283
C       -1.43899767       0.48357447      -0.12405319
C       -1.60585485      -0.84983363       0.07700644
N       -0.28612979      -1.29382841      -0.08880534
H        2.38070006      -0.13152404      -0.72047164
H        2.54558252       0.81354947       0.60535766
H        0.44058406       2.06951413       0.04987233
H       -2.19959958       1.20242438      -0.39022074
H       -2.45376900      -1.51750226       0.07714504
H        0.14996494      -1.94951013       0.53776858
