11
Frame=0 idx=009458 GeodesicLength=0.0 rxn_smarts="[O:1]([c+:2]1[n-:3][c:4]([O:5][H:9])[c:6]([H:10])[n:7]1[H:11])[H:8]>>[O:1]([C+:2]1[N+:3](=[C-:4][O:5][H:9])[C-:6]([H:10])[N:7]1[H:11])[H:8]"
O       -1.82108917       0.75912533      -0.33062457
C       -0.81718735      -0.02864518      -0.05528485
N        0.46631281       0.31590513       0.00365623
C        0.69600676       1.63088735      -0.14490668
O        1.93765824       1.96250523       0.10629237
C        0.36352666      -1.76201645       0.66666463
N       -0.93468757      -1.31594308       0.19312737
H       -1.38944750       1.62734052      -0.50885860
H        2.44651384       1.18262999       0.39284487
H        0.71031617      -2.48320840      -0.10989967
H       -1.65792288      -1.88858048      -0.21301115
11
Frame=1 idx=009458 GeodesicLength=0.09814923587284193 rxn_smarts="[O:1]([c+:2]1[n-:3][c:4]([O:5][H:9])[c:6]([H:10])[n:7]1[H:11])[H:8]>>[O:1]([C+:2]1[N+:3](=[C-:4][O:5][H:9])[C-:6]([H:10])[N:7]1[H:11])[H:8]"
O       -1.84097334       0.75560579      -0.34929868
C       -0.85081534      -0.01340137       0.01734416
N        0.41059724       0.35579008       0.21614295
C        0.72911241       1.57857412      -0.22628172
O        1.96889230       1.91108827       0.04013697
C        0.39750658      -1.73761689       0.60848889
N       -0.93318657      -1.31394254       0.20634309
H       -1.40022125       1.60490302      -0.58279681
H        2.43859485       1.16911406       0.46188422
H        0.73942033      -2.42195384      -0.19961018
H       -1.65892722      -1.88816070      -0.19235288
11
Frame=2 idx=009458 GeodesicLength=0.21152873578591352 rxn_smarts="[O:1]([c+:2]1[n-:3][c:4]([O:5][H:9])[c:6]([H:10])[n:7]1[H:11])[H:8]>>[O:1]([C+:2]1[N+:3](=[C-:4][O:5][H:9])[C-:6]([H:10])[N:7]1[H:11])[H:8]"
O       -1.86210262       0.75148816      -0.37110540
C       -0.88967264       0.00603006       0.08694155
N        0.35140403       0.40137704       0.35783593
C        0.76909776       1.48491798      -0.30770500
O        1.99284411       1.84288182       0.00452806
C        0.44349105      -1.68424019       0.53954198
N       -0.92559795      -1.30380925       0.22825508
H       -1.41009769       1.58129922      -0.64710047
H        2.42069350       1.15455545       0.54563244
H        0.76625934      -2.34492262      -0.29278503
H       -1.65631888      -1.88957767      -0.14403914
11
Frame=3 idx=009458 GeodesicLength=0.3380709413674684 rxn_smarts="[O:1]([c+:2]1[n-:3][c:4]([O:5][H:9])[c:6]([H:10])[n:7]1[H:11])[H:8]>>[O:1]([C+:2]1[N+:3](=[C-:4][O:5][H:9])[C-:6]([H:10])[N:7]1[H:11])[H:8]"
O       -1.87886455       0.74895918      -0.38237268
C       -0.92159456       0.02301688       0.13686652
N        0.30643541       0.43625718       0.43752256
C        0.80841981       1.38109748      -0.36553972
O        2.00920708       1.77930113      -0.01346739
C        0.48243791      -1.62182578       0.47108621
N       -0.91602005      -1.29008462       0.24815292
H       -1.41689163       1.55672902      -0.69886599
H        2.39719560       1.15425820       0.62469011
H        0.78114952      -2.27718246      -0.37119895
H       -1.65147454      -1.89052621      -0.08687361
11
Frame=4 idx=009458 GeodesicLength=0.4672878047794041 rxn_smarts="[O:1]([c+:2]1[n-:3][c:4]([O:5][H:9])[c:6]([H:10])[n:7]1[H:11])[H:8]>>[O:1]([C+:2]1[N+:3](=[C-:4][O:5][H:9])[C-:6]([H:10])[N:7]1[H:11])[H:8]"
O       -1.89661143       0.74903861      -0.38768444
C       -0.94851694       0.03739298       0.16909476
N        0.27012491       0.46477286       0.48675600
C        0.84190237       1.28615474      -0.40051582
O        2.02533488       1.71848343      -0.02815243
C        0.51138826      -1.55961231       0.41641325
N       -0.90676150      -1.27704421       0.25893711
H       -1.42919573       1.54079346      -0.73114236
H        2.37638473       1.15496994       0.68363611
H        0.79748205      -2.22147693      -0.42230011
H       -1.64153160      -1.89347257      -0.04504207
11
Frame=5 idx=009458 GeodesicLength=0.5969690100275904 rxn_smarts="[O:1]([c+:2]1[n-:3][c:4]([O:5][H:9])[c:6]([H:10])[n:7]1[H:11])[H:8]>>[O:1]([C+:2]1[N+:3](=[C-:4][O:5][H:9])[C-:6]([H:10])[N:7]1[H:11])[H:8]"
O       -1.91647083       0.75083117      -0.38872396
C       -0.97181977       0.04955155       0.18938029
N        0.23966203       0.48893183       0.51794064
C        0.86979039       1.20142924      -0.42260908
O        2.04236466       1.65898524      -0.04243454
C        0.53284250      -1.50031996       0.37589448
N       -0.89833978      -1.26506986       0.26190204
H       -1.44878724       1.53434838      -0.74694907
H        2.35957080       1.15329345       0.72607431
H        0.81891360      -2.17484256      -0.44987195
H       -1.62772635      -1.89713848      -0.02060317
11
Frame=6 idx=009458 GeodesicLength=0.7272702137870786 rxn_smarts="[O:1]([c+:2]1[n-:3][c:4]([O:5][H:9])[c:6]([H:10])[n:7]1[H:11])[H:8]>>[O:1]([C+:2]1[N+:3](=[C-:4][O:5][H:9])[C-:6]([H:10])[N:7]1[H:11])[H:8]"
O       -1.93756023       0.75342453      -0.38717768
C       -0.99197568       0.06012448       0.20167687
N        0.21378440       0.50990914       0.53730229
C        0.89379821       1.12506012      -0.43711700
O        2.06061461       1.59964865      -0.05607944
C        0.54965748      -1.44474659       0.34395573
N       -0.89045972      -1.25381009       0.25987335
H       -1.47366004       1.53420978      -0.75308963
H        2.34476063       1.15136953       0.75933872
H        0.84373533      -2.13427592      -0.46365517
H       -1.61269499      -1.90091362      -0.00502805
11
Frame=7 idx=009458 GeodesicLength=0.8583033527956023 rxn_smarts="[O:1]([c+:2]1[n-:3][c:4]([O:5][H:9])[c:6]([H:10])[n:7]1[H:11])[H:8]>>[O:1]([C+:2]1[N+:3](=[C-:4][O:5][H:9])[C-:6]([H:10])[N:7]1[H:11])[H:8]"
O       -1.95926490       0.75642319      -0.38390548
C       -1.00930990       0.06961193       0.20791855
N        0.19154222       0.52843808       0.54805969
C        0.91491277       1.05556159      -0.44687614
O        2.07976022       1.53981075      -0.06857893
C        0.56329938      -1.39291819       0.31781257
N       -0.88283722      -1.24297622       0.25386270
H       -1.50269446       1.53877906      -0.75239092
H        2.33087567       1.14998977       0.78644398
H        0.87106798      -2.09824081      -0.46800218
H       -1.59735176      -1.90447914       0.00565616
11
Frame=8 idx=009458 GeodesicLength=0.9897521750130656 rxn_smarts="[O:1]([c+:2]1[n-:3][c:4]([O:5][H:9])[c:6]([H:10])[n:7]1[H:11])[H:8]>>[O:1]([C+:2]1[N+:3](=[C-:4][O:5][H:9])[C-:6]([H:10])[N:7]1[H:11])[H:8]"
O       -1.98161086       0.75932871      -0.38005504
C       -1.02433433       0.07820241       0.20881459
N        0.17220997       0.54513073       0.55199386
C        0.93411993       0.99215008      -0.45372749
O        2.09991651       1.47974901      -0.07920624
C        0.57465307      -1.34465016       0.29605195
N       -0.87545689      -1.23259239       0.24422791
H       -1.53567219       1.54756209      -0.74581864
H        2.31800925       1.14884495       0.80876745
H        0.90047298      -2.06562041      -0.46512604
H       -1.58230744      -1.90810502       0.01407769
11
Frame=9 idx=009458 GeodesicLength=1.121531534781826 rxn_smarts="[O:1]([c+:2]1[n-:3][c:4]([O:5][H:9])[c:6]([H:10])[n:7]1[H:11])[H:8]>>[O:1]([C+:2]1[N+:3](=[C-:4][O:5][H:9])[C-:6]([H:10])[N:7]1[H:11])[H:8]"
O       -2.00450000       0.76193368      -0.37617332
C       -1.03735939       0.08610404       0.20476181
N        0.15524101       0.56043098       0.55008472
C        0.95210645       0.93381213      -0.45898558
O        2.12087304       1.41953265      -0.08771400
C        0.58426837      -1.29966112       0.27790863
N       -0.86823351      -1.22257324       0.23107202
H       -1.57244020       1.56023263      -0.73344058
H        2.30595651       1.14771026       0.82710039
H        0.93169058      -2.03576764      -0.45592830
H       -1.56760287      -1.91175436       0.02131421
11
Frame=10 idx=009458 GeodesicLength=1.2535933601002445 rxn_smarts="[O:1]([c+:2]1[n-:3][c:4]([O:5][H:9])[c:6]([H:10])[n:7]1[H:11])[H:8]>>[O:1]([C+:2]1[N+:3](=[C-:4][O:5][H:9])[C-:6]([H:10])[N:7]1[H:11])[H:8]"
O       -2.02790867       0.76426067      -0.37220648
C       -1.04861283       0.09350910       0.19615871
N        0.14030326       0.57463987       0.54305483
C        0.96939415       0.87958503      -0.46348833
O        2.14238568       1.35929633      -0.09402191
C        0.59254090      -1.25767159       0.26281325
N       -0.86116019      -1.21284774       0.21442822
H       -1.61278056       1.57610585      -0.71549300
H        2.29472760       1.14669603       0.84198206
H        0.96440205      -2.00831996      -0.44085582
H       -1.55329139      -1.91525358       0.02762848
11
Frame=11 idx=009458 GeodesicLength=1.385965608598893 rxn_smarts="[O:1]([c+:2]1[n-:3][c:4]([O:5][H:9])[c:6]([H:10])[n:7]1[H:11])[H:8]>>[O:1]([C+:2]1[N+:3](=[C-:4][O:5][H:9])[C-:6]([H:10])[N:7]1[H:11])[H:8]"
O       -2.05168754       0.76621842      -0.36865447
C       -1.05820664       0.10059063       0.18274987
N        0.12705061       0.58806665       0.53104324
C        0.98646539       0.82880667      -0.46780244
O        2.16417905       1.29928870      -0.09781356
C        0.59975554      -1.21833796       0.25010824
N       -0.85403270      -1.20328207       0.19418235
H       -1.65668534       1.59474049      -0.69166400
H        2.28404439       1.14510497       0.85392453
H        0.99830532      -1.98275074      -0.42039007
H       -1.53918807      -1.91844579       0.03431631
11
Frame=12 idx=009458 GeodesicLength=1.518502948653125 rxn_smarts="[O:1]([c+:2]1[n-:3][c:4]([O:5][H:9])[c:6]([H:10])[n:7]1[H:11])[H:8]>>[O:1]([C+:2]1[N+:3](=[C-:4][O:5][H:9])[C-:6]([H:10])[N:7]1[H:11])[H:8]"
O       -2.07588905       0.76791115      -0.36528482
C       -1.06627952       0.10746519       0.16448223
N        0.11535955       0.60085711       0.51433602
C        1.00375928       0.78083607      -0.47229500
O        2.18626422       1.23963022      -0.09903823
C        0.60607655      -1.18142086       0.23923027
N       -0.84689997      -1.19387148       0.16981364
H       -1.70396444       1.61527550      -0.66197508
H        2.27402743       1.14336256       0.86350105
H        1.03299612      -1.95890310      -0.39474997
H       -1.52545017      -1.92114237       0.04197989
11
Frame=13 idx=009458 GeodesicLength=1.651279794282189 rxn_smarts="[O:1]([c+:2]1[n-:3][c:4]([O:5][H:9])[c:6]([H:10])[n:7]1[H:11])[H:8]>>[O:1]([C+:2]1[N+:3](=[C-:4][O:5][H:9])[C-:6]([H:10])[N:7]1[H:11])[H:8]"
O       -2.10051706       0.76959299      -0.36148884
C       -1.07281017       0.11429624       0.14096034
N        0.10509239       0.61308497       0.49296250
C        1.02157694       0.73521065      -0.47708299
O        2.20847195       1.18021524      -0.09735618
C        0.61160343      -1.14667474       0.22940113
N       -0.83960607      -1.18451220       0.14040089
H       -1.75429484       1.63659557      -0.62677575
H        2.26437368       1.14154066       0.87129169
H        1.06803938      -1.93645453      -0.36437137
H       -1.51192963      -1.92289485       0.05205859
11
Frame=14 idx=009458 GeodesicLength=1.7841569601978977 rxn_smarts="[O:1]([c+:2]1[n-:3][c:4]([O:5][H:9])[c:6]([H:10])[n:7]1[H:11])[H:8]>>[O:1]([C+:2]1[N+:3](=[C-:4][O:5][H:9])[C-:6]([H:10])[N:7]1[H:11])[H:8]"
O       -2.12568688       0.77118291      -0.35679074
C       -1.07781493       0.12121983       0.11156998
N        0.09616302       0.62502374       0.46659198
C        1.04032031       0.69136274      -0.48252712
O        2.23077830       1.12119912      -0.09276631
C        0.61630814      -1.11380866       0.22051536
N       -0.83213467      -1.17515843       0.10606947
H       -1.80763404       1.65775607      -0.58552049
H        2.25498125       1.13939279       0.87753164
H        1.10285237      -1.91518050      -0.32882728
H       -1.49813286      -1.92298960       0.06415351
11
Frame=15 idx=009458 GeodesicLength=1.9171090793484282 rxn_smarts="[O:1]([c+:2]1[n-:3][c:4]([O:5][H:9])[c:6]([H:10])[n:7]1[H:11])[H:8]>>[O:1]([C+:2]1[N+:3](=[C-:4][O:5][H:9])[C-:6]([H:10])[N:7]1[H:11])[H:8]"
O       -2.15142131       0.77250347      -0.35022344
C       -1.08120219       0.12848780       0.07576587
N        0.08859472       0.63705826       0.43475524
C        1.06023980       0.64853711      -0.48897419
O        2.25309720       1.06238961      -0.08564348
C        0.62009894      -1.08247308       0.21298705
N       -0.82447015      -1.16568484       0.06798636
H       -1.86379898       1.67763204      -0.53739349
H        2.24571020       1.13714532       0.88196490
H        1.13665250      -1.89493779      -0.28688746
H       -1.48350073      -1.92065791       0.07566266
11
Frame=16 idx=009458 GeodesicLength=2.0500888245873785 rxn_smarts="[O:1]([c+:2]1[n-:3][c:4]([O:5][H:9])[c:6]([H:10])[n:7]1[H:11])[H:8]>>[O:1]([C+:2]1[N+:3](=[C-:4][O:5][H:9])[C-:6]([H:10])[N:7]1[H:11])[H:8]"
O       -2.17753304       0.77314618      -0.34075690
C       -1.08277999       0.13639579       0.03270784
N        0.08250800       0.64961494       0.39679543
C        1.08158120       0.60601222      -0.49668497
O        2.27528129       1.00379611      -0.07629821
C        0.62294493      -1.05221684       0.20731130
N       -0.81654306      -1.15591302       0.02801983
H       -1.92224575       1.69485017      -0.48152320
H        2.23654040       1.13521447       0.88425120
H        1.16830634      -1.87547311      -0.23741947
H       -1.46806031      -1.91542691       0.08359714
