10
Frame=0 idx=000323 GeodesicLength=0.0 rxn_smarts="[O:1]=[C:2]([N:3]1[C:4]([H:7])([H:8])[C:5]1([H:9])[H:10])[H:6]>>[O:1]=[C:2]=[N:3][C:4]([C:5]([H:6])([H:9])[H:10])([H:7])[H:8]"
O        2.55615080      -0.38463894       0.23643189
C        1.42033189      -0.02570901       0.08832245
N        0.56057629       0.51402158       0.96063295
C       -0.73536496       0.67317307       0.32793419
C       -0.75815887      -0.61845567      -0.33422904
H        0.94366714      -0.16294412      -0.96899093
H       -1.48412178       0.74515541       1.12128207
H       -0.83952826       1.53737061      -0.33097514
H       -0.90297697      -0.77956243      -1.39628142
H       -0.76057528      -1.49841051       0.29587298
10
Frame=1 idx=000323 GeodesicLength=0.08118329541380537 rxn_smarts="[O:1]=[C:2]([N:3]1[C:4]([H:7])([H:8])[C:5]1([H:9])[H:10])[H:6]>>[O:1]=[C:2]=[N:3][C:4]([C:5]([H:6])([H:9])[H:10])([H:7])[H:8]"
O        2.56317218      -0.38857091       0.24496601
C        1.43623708      -0.00882101       0.08931114
N        0.55545924       0.49533521       0.95699445
C       -0.73876636       0.67514545       0.32866093
C       -0.74733008      -0.62044874      -0.33165266
H        0.93963468      -0.15696332      -0.98148755
H       -1.48894219       0.74801148       1.11978081
H       -0.83662129       1.53641570      -0.33442298
H       -0.91460636      -0.77959494      -1.39056177
H       -0.76823689      -1.50050893       0.29841161
10
Frame=2 idx=000323 GeodesicLength=0.16237390342520452 rxn_smarts="[O:1]=[C:2]([N:3]1[C:4]([H:7])([H:8])[C:5]1([H:9])[H:10])[H:6]>>[O:1]=[C:2]=[N:3][C:4]([C:5]([H:6])([H:9])[H:10])([H:7])[H:8]"
O        2.57032058      -0.39164468       0.25353057
C        1.45211149       0.00761192       0.09123682
N        0.55075863       0.47705051       0.95247191
C       -0.74197794       0.67691762       0.32934706
C       -0.73660053      -0.62246083      -0.32935485
H        0.93560261      -0.15139545      -0.99382300
H       -1.49319964       0.75059955       1.11859328
H       -0.83391631       1.53525800      -0.33778622
H       -0.92628201      -0.77955030      -1.38468440
H       -0.77681687      -1.50238635       0.30046883
10
Frame=3 idx=000323 GeodesicLength=0.24357250006036152 rxn_smarts="[O:1]=[C:2]([N:3]1[C:4]([H:7])([H:8])[C:5]1([H:9])[H:10])[H:6]>>[O:1]=[C:2]=[N:3][C:4]([C:5]([H:6])([H:9])[H:10])([H:7])[H:8]"
O        2.57768127      -0.39381076       0.26212415
C        1.46793249       0.02354870       0.09411115
N        0.54645351       0.45913865       0.94713615
C       -0.74499978       0.67848564       0.32999663
C       -0.72599783      -0.62451061      -0.32732541
H        0.93153986      -0.14625012      -1.00606159
H       -1.49692219       0.75295215       1.11769792
H       -0.83137181       1.53389465      -0.34107665
H       -0.93803091      -0.77942338      -1.37864167
H       -0.78628461      -1.50402491       0.30203933
10
Frame=4 idx=000323 GeodesicLength=0.32483418305370176 rxn_smarts="[O:1]=[C:2]([N:3]1[C:4]([H:7])([H:8])[C:5]1([H:9])[H:10])[H:6]>>[O:1]=[C:2]=[N:3][C:4]([C:5]([H:6])([H:9])[H:10])([H:7])[H:8]"
O        2.58526793      -0.39515144       0.27078260
C        1.48369246       0.03903301       0.09792631
N        0.54252655       0.44161675       0.94106235
C       -0.74783739       0.67986667       0.33062187
C       -0.71553263      -0.62663275      -0.32556222
H        0.92741002      -0.14150548      -1.01830536
H       -1.50013306       0.75510233       1.11711370
H       -0.82898031       1.53236487      -0.34431596
H       -0.94986424      -0.77924083      -1.37245817
H       -0.79654934      -1.50545314       0.30313487
10
Frame=5 idx=000323 GeodesicLength=0.405998949668236 rxn_smarts="[O:1]=[C:2]([N:3]1[C:4]([H:7])([H:8])[C:5]1([H:9])[H:10])[H:6]>>[O:1]=[C:2]=[N:3][C:4]([C:5]([H:6])([H:9])[H:10])([H:7])[H:8]"
O        2.59306985      -0.39581119       0.27952524
C        1.49938511       0.05407444       0.10266030
N        0.53895735       0.42447317       0.93422039
C       -0.75051350       0.68102634       0.33119785
C       -0.70520174      -0.62878015      -0.32402611
H        0.92316932      -0.13709980      -1.03056404
H       -1.50286419       0.75702659       1.11674640
H       -0.82678402       1.53056100      -0.34748529
H       -0.96177069      -0.77895092      -1.36601400
H       -0.80744750      -1.50651947       0.30373926
10
Frame=6 idx=000323 GeodesicLength=0.48718549777848585 rxn_smarts="[O:1]=[C:2]([N:3]1[C:4]([H:7])([H:8])[C:5]1([H:9])[H:10])[H:6]>>[O:1]=[C:2]=[N:3][C:4]([C:5]([H:6])([H:9])[H:10])([H:7])[H:8]"
O        2.60102902      -0.39595037       0.28840115
C        1.51501122       0.06877597       0.10830743
N        0.53573743       0.40776923       0.92669957
C       -0.75303624       0.68201136       0.33174907
C       -0.69502001      -0.63100781      -0.32272812
H        0.91876825      -0.13301041      -1.04296780
H       -1.50512917       0.75877185       1.11667037
H       -0.82479011       1.52858866      -0.35062116
H       -0.97372882      -0.77861506      -1.35939565
H       -0.81884157      -1.50733341       0.30388516
10
Frame=7 idx=000323 GeodesicLength=0.5683161061408706 rxn_smarts="[O:1]=[C:2]([N:3]1[C:4]([H:7])([H:8])[C:5]1([H:9])[H:10])[H:6]>>[O:1]=[C:2]=[N:3][C:4]([C:5]([H:6])([H:9])[H:10])([H:7])[H:8]"
O        2.60909634      -0.39570837       0.29742577
C        1.53057384       0.08318544       0.11486190
N        0.53285309       0.39152432       0.91851186
C       -0.75542199       0.68282194       0.33227011
C       -0.68499659      -0.63330583      -0.32165077
H        0.91416410      -0.12920267      -1.05555532
H       -1.50694979       0.76034102       1.11686321
H       -0.82302013       1.52642725      -0.35372798
H       -0.98571976      -0.77822713      -1.35257701
H       -0.83057913      -1.50785597       0.30357823
10
Frame=8 idx=000323 GeodesicLength=0.6492680721706291 rxn_smarts="[O:1]=[C:2]([N:3]1[C:4]([H:7])([H:8])[C:5]1([H:9])[H:10])[H:6]>>[O:1]=[C:2]=[N:3][C:4]([C:5]([H:6])([H:9])[H:10])([H:7])[H:8]"
O        2.61723884      -0.39522767       0.30660209
C        1.54608097       0.09729463       0.12230699
N        0.53027469       0.37579062       0.90970698
C       -0.75769977       0.68348362       0.33276338
C       -0.67513562      -0.63567306      -0.32078649
H        0.90932750      -0.12562903      -1.06838401
H       -1.50836422       0.76175263       1.11733641
H       -0.82151260       1.52410579      -0.35681875
H       -0.99770435      -0.77780868      -1.34557354
H       -0.84250543      -1.50808886       0.30284694
10
Frame=9 idx=000323 GeodesicLength=0.7306091476791124 rxn_smarts="[O:1]=[C:2]([N:3]1[C:4]([H:7])([H:8])[C:5]1([H:9])[H:10])[H:6]>>[O:1]=[C:2]=[N:3][C:4]([C:5]([H:6])([H:9])[H:10])([H:7])[H:8]"
O        2.62531287      -0.39467717       0.31591812
C        1.56148440       0.11131642       0.13083493
N        0.52803500       0.36050730       0.90024224
C       -0.75982463       0.68397284       0.33321353
C       -0.66541496      -0.63810303      -0.32012179
H        0.90410970      -0.12219013      -1.08159144
H       -1.50934874       0.76301740       1.11800494
H       -0.82019847       1.52157608      -0.35990608
H       -1.00967527      -0.77737332      -1.33831590
H       -0.85447990      -1.50804640       0.30172145
10
Frame=10 idx=000323 GeodesicLength=0.8117939344797139 rxn_smarts="[O:1]=[C:2]([N:3]1[C:4]([H:7])([H:8])[C:5]1([H:9])[H:10])[H:6]>>[O:1]=[C:2]=[N:3][C:4]([C:5]([H:6])([H:9])[H:10])([H:7])[H:8]"
O        2.63335911      -0.39412325       0.32538919
C        1.57685158       0.12512433       0.14032246
N        0.52607799       0.34577117       0.89018688
C       -0.76186374       0.68434174       0.33363117
C       -0.65586636      -0.64059566      -0.31964263
H        0.89853226      -0.11891158      -1.09514666
H       -1.50995346       0.76415927       1.11893085
H       -0.81916710       1.51890885      -0.36299877
H       -1.02159528      -0.77693317      -1.33088399
H       -0.86637498      -1.50774171       0.30021149
10
Frame=11 idx=000323 GeodesicLength=0.8929091060601668 rxn_smarts="[O:1]=[C:2]([N:3]1[C:4]([H:7])([H:8])[C:5]1([H:9])[H:10])[H:6]>>[O:1]=[C:2]=[N:3][C:4]([C:5]([H:6])([H:9])[H:10])([H:7])[H:8]"
O        2.64133627      -0.39362477       0.33500589
C        1.59215359       0.13883962       0.15084684
N        0.52441293       0.33153559       0.87951954
C       -0.76380733       0.68458643       0.33401363
C       -0.64649336      -0.64315012      -0.31937128
H        0.89255547      -0.11581604      -1.10910283
H       -1.51017946       0.76518814       1.12010072
H       -0.81838906       1.51610070      -0.36610553
H       -1.03346697      -0.77646451      -1.32326830
H       -0.87812208      -1.50719505       0.29836132
10
Frame=12 idx=000323 GeodesicLength=0.9739970517747013 rxn_smarts="[O:1]=[C:2]([N:3]1[C:4]([H:7])([H:8])[C:5]1([H:9])[H:10])[H:6]>>[O:1]=[C:2]=[N:3][C:4]([C:5]([H:6])([H:9])[H:10])([H:7])[H:8]"
O        2.64917564      -0.39331484       0.34472325
C        1.60737953       0.15234460       0.16251880
N        0.52302593       0.31786879       0.86828824
C       -0.76566009       0.68471825       0.33433393
C       -0.63726454      -0.64573844      -0.31928506
H        0.88607048      -0.11270816      -1.12356255
H       -1.51004872       0.76610469       1.12144704
H       -0.81787158       1.51313318      -0.36924648
H       -1.04525701      -0.77603029      -1.31543532
H       -0.88954963      -1.50637779       0.29621815
10
Frame=13 idx=000323 GeodesicLength=1.0551106548051148 rxn_smarts="[O:1]=[C:2]([N:3]1[C:4]([H:7])([H:8])[C:5]1([H:9])[H:10])[H:6]>>[O:1]=[C:2]=[N:3][C:4]([C:5]([H:6])([H:9])[H:10])([H:7])[H:8]"
O        2.65688833      -0.39320639       0.35453339
C        1.62255757       0.16578392       0.17539839
N        0.52190308       0.30474407       0.85649196
C       -0.76742889       0.68477273       0.33462075
C       -0.62821166      -0.64840517      -0.31941248
H        0.87908181      -0.10969378      -1.13859816
H       -1.50958474       0.76696351       1.12304651
H       -0.81757633       1.51008929      -0.37242770
H       -1.05697450      -0.77564449      -1.30746700
H       -0.90065467      -1.50540369       0.29381433
10
Frame=14 idx=000323 GeodesicLength=1.1361472637212602 rxn_smarts="[O:1]=[C:2]([N:3]1[C:4]([H:7])([H:8])[C:5]1([H:9])[H:10])[H:6]>>[O:1]=[C:2]=[N:3][C:4]([C:5]([H:6])([H:9])[H:10])([H:7])[H:8]"
O        2.66442370      -0.39331332       0.36441045
C        1.63763660       0.17910450       0.18959740
N        0.52106998       0.29209646       0.84405262
C       -0.76909655       0.68470010       0.33481065
C       -0.61930411      -0.65105335      -0.31972025
H        0.87142885      -0.10674477      -1.15412098
H       -1.50870294       0.76772070       1.12473979
H       -0.81754959       1.50684895      -0.37566025
H       -1.06862303      -0.77520389      -1.29925419
H       -0.91128291      -1.50415537       0.29114476
10
Frame=15 idx=000323 GeodesicLength=1.2172363090113762 rxn_smarts="[O:1]=[C:2]([N:3]1[C:4]([H:7])([H:8])[C:5]1([H:9])[H:10])[H:6]>>[O:1]=[C:2]=[N:3][C:4]([C:5]([H:6])([H:9])[H:10])([H:7])[H:8]"
O        2.67181905      -0.39367483       0.37430104
C        1.65267904       0.19234343       0.20523559
N        0.52049264       0.28002685       0.83107437
C       -0.77068099       0.68459307       0.33496308
C       -0.61057545      -0.65379276      -0.32026157
H        0.86317368      -0.10382189      -1.17038882
H       -1.50751831       0.76847032       1.12669970
H       -0.81769551       1.50359052      -0.37896145
H       -1.08019506      -0.77489000      -1.29095601
H       -0.92149909      -1.50284471       0.28829406
10
Frame=16 idx=000323 GeodesicLength=1.2982137670323652 rxn_smarts="[O:1]=[C:2]([N:3]1[C:4]([H:7])([H:8])[C:5]1([H:9])[H:10])[H:6]>>[O:1]=[C:2]=[N:3][C:4]([C:5]([H:6])([H:9])[H:10])([H:7])[H:8]"
O        2.67898181      -0.39438419       0.38418383
C        1.66758019       0.20534786       0.22246517
N        0.52019783       0.26849895       0.81742639
C       -0.77216993       0.68438368       0.33497788
C       -0.60194713      -0.65648475      -0.32100322
H        0.85410205      -0.10081921      -1.18728569
H       -1.50592095       0.76911431       1.12868644
H       -0.81812958       1.50015042      -0.38234936
H       -1.09169705      -0.77456042      -1.28238662
H       -0.93099723      -1.50124664       0.28528519
