13
Frame=0 idx=009462 GeodesicLength=0.0 rxn_smarts="[O:1]([C@@:2]1([H:9])[C:3]([H:10])([H:11])[C@:4]1([O:5][C:6](=[O:7])[H:13])[H:12])[H:8]>>[O:1]=[C:2]([C:3]([C@@:4]1([H:12])[O:5][C@:6]1([O:7][H:8])[H:13])([H:10])[H:11])[H:9]"
O       -0.94494925       1.11358805       1.14779454
C       -0.95782216      -0.09467804       0.70858794
C       -1.18890407      -0.43978137      -0.69802023
C        0.29506529      -0.65486109      -0.54624097
O        1.17472609       0.16276143      -1.28279493
C        1.50473907       0.46345877       0.02254522
O        1.26109131       1.58321141       0.53790291
H        0.06878073       1.55606093       0.92070438
H       -0.93964502      -0.90987207       1.43584345
H       -1.75146049      -1.34114347      -0.91628281
H       -1.44503318       0.40625134      -1.32606528
H        0.61928586      -1.68364481      -0.43284488
H        2.30412579      -0.16135103       0.42887064
13
Frame=1 idx=009462 GeodesicLength=0.06404371524903023 rxn_smarts="[O:1]([C@@:2]1([H:9])[C:3]([H:10])([H:11])[C@:4]1([O:5][C:6](=[O:7])[H:13])[H:12])[H:8]>>[O:1]=[C:2]([C:3]([C@@:4]1([H:12])[O:5][C@:6]1([O:7][H:8])[H:13])([H:10])[H:11])[H:9]"
O       -0.95244889       1.10965507       1.15205464
C       -0.97090332      -0.09838671       0.71173658
C       -1.18729267      -0.44117525      -0.69929298
C        0.29508853      -0.65493624      -0.53488006
O        1.16957274       0.15880965      -1.28291323
C        1.51748485       0.46482619       0.01521177
O        1.26987770       1.57961624       0.54183031
H        0.07144183       1.55526390       0.92846285
H       -0.98694741      -0.91301488       1.44001870
H       -1.74903224      -1.34183642      -0.92254303
H       -1.43961810       0.40671056      -1.32661699
H        0.62007973      -1.68342210      -0.41976016
H        2.34269725      -0.14211001       0.39669161
13
Frame=2 idx=009462 GeodesicLength=0.12762547911108596 rxn_smarts="[O:1]([C@@:2]1([H:9])[C:3]([H:10])([H:11])[C@:4]1([O:5][C:6](=[O:7])[H:13])[H:12])[H:8]>>[O:1]=[C:2]([C:3]([C@@:4]1([H:12])[O:5][C@:6]1([O:7][H:8])[H:13])([H:10])[H:11])[H:9]"
O       -0.95999243       1.10561718       1.15637670
C       -0.98418279      -0.10216940       0.71490390
C       -1.18554654      -0.44269353      -0.70042032
C        0.29517942      -0.65487194      -0.52324469
O        1.16452303       0.15471748      -1.28281139
C        1.53045492       0.46606535       0.00775075
O        1.27902449       1.57553704       0.54616346
H        0.07435681       1.55419078       0.93658988
H       -1.03503563      -0.91549316       1.44339975
H       -1.74626878      -1.34273619      -0.92870710
H       -1.43415587       0.40699373      -1.32703024
H        0.62095092      -1.68304235      -0.40624258
H        2.38069245      -0.12211501       0.36327189
13
Frame=3 idx=009462 GeodesicLength=0.19079416805987054 rxn_smarts="[O:1]([C@@:2]1([H:9])[C:3]([H:10])([H:11])[C@:4]1([O:5][C:6](=[O:7])[H:13])[H:12])[H:8]>>[O:1]=[C:2]([C:3]([C@@:4]1([H:12])[O:5][C@:6]1([O:7][H:8])[H:13])([H:10])[H:11])[H:9]"
O       -0.96757933       1.10147301       1.16076638
C       -0.99766023      -0.10602645       0.71808723
C       -1.18366482      -0.44434110      -0.70139882
C        0.29534068      -0.65466851      -0.51133411
O        1.15958391       0.15047676      -1.28248675
C        1.54365038       0.46716942       0.00015834
O        1.28854799       1.57094395       0.55092210
H        0.07753538       1.55283050       0.94510406
H       -1.08390878      -0.91726855       1.44594099
H       -1.74316628      -1.34385193      -0.93476583
H       -1.42865082       0.40709520      -1.32730646
H        0.62190555      -1.68250572      -0.39228131
H        2.41806636      -0.10132658       0.32859416
13
Frame=4 idx=009462 GeodesicLength=0.25357063039645955 rxn_smarts="[O:1]([C@@:2]1([H:9])[C:3]([H:10])([H:11])[C@:4]1([O:5][C:6](=[O:7])[H:13])[H:12])[H:8]>>[O:1]=[C:2]([C:3]([C@@:4]1([H:12])[O:5][C@:6]1([O:7][H:8])[H:13])([H:10])[H:11])[H:9]"
O       -0.97519762       1.09720595       1.16522169
C       -1.01132924      -0.10996668       0.72127989
C       -1.18164141      -0.44612120      -0.70221945
C        0.29557112      -0.65432370      -0.49914535
O        1.15476520       0.14608025      -1.28193180
C        1.55706583       0.46813480      -0.00757387
O        1.29846486       1.56580378       0.55610859
H        0.08099747       1.55115880       0.95401929
H       -1.13356946      -0.91830520       1.44759002
H       -1.73972098      -1.34518646      -0.94070256
H       -1.42309216       0.40701261      -1.32743742
H        0.62293627      -1.68180715      -0.37786302
H        2.45475011      -0.07968580       0.29265399
13
Frame=5 idx=009462 GeodesicLength=0.31603699905457083 rxn_smarts="[O:1]([C@@:2]1([H:9])[C:3]([H:10])([H:11])[C@:4]1([O:5][C:6](=[O:7])[H:13])[H:12])[H:8]>>[O:1]=[C:2]([C:3]([C@@:4]1([H:12])[O:5][C@:6]1([O:7][H:8])[H:13])([H:10])[H:11])[H:9]"
O       -0.98286816       1.09283063       1.16976836
C       -1.02519587      -0.11398472       0.72449571
C       -1.17947274      -0.44803276      -0.70288152
C        0.29588333      -0.65384418      -0.48668900
O        1.15008743       0.14151791      -1.28116492
C        1.57070453       0.46894454      -0.01545194
O        1.30878220       1.56008323       0.56174692
H        0.08472716       1.54918364       0.96335117
H       -1.18399670      -0.91856317       1.44832191
H       -1.73591850      -1.34674644      -0.94650595
H       -1.41748703       0.40675383      -1.32743828
H        0.62406926      -1.68096323      -0.36298684
H        2.49068509      -0.05717928       0.25543436
13
Frame=6 idx=009462 GeodesicLength=0.3781378511059531 rxn_smarts="[O:1]([C@@:2]1([H:9])[C:3]([H:10])([H:11])[C@:4]1([O:5][C:6](=[O:7])[H:13])[H:12])[H:8]>>[O:1]=[C:2]([C:3]([C@@:4]1([H:12])[O:5][C@:6]1([O:7][H:8])[H:13])([H:10])[H:11])[H:9]"
O       -0.99053362       1.08831413       1.17439894
C       -1.03921761      -0.11809361       0.72771699
C       -1.17714724      -0.45009485      -0.70337806
C        0.29627087      -0.65322612      -0.47395535
O        1.14552482       0.13676821      -1.28017183
C        1.58455522       0.46960423      -0.02348745
O        1.31952227       1.55374375       0.56785053
H        0.08878197       1.54685558       0.97314676
H       -1.23526848      -0.91795782       1.44805168
H       -1.73174922      -1.34854602      -0.95217117
H       -1.41183237       0.40628345      -1.32728813
H        0.62529409      -1.67994885      -0.34763373
H        2.52579929      -0.03370208       0.21692082
13
Frame=7 idx=009462 GeodesicLength=0.43981100009188956 rxn_smarts="[O:1]([C@@:2]1([H:9])[C:3]([H:10])([H:11])[C@:4]1([O:5][C:6](=[O:7])[H:13])[H:12])[H:8]>>[O:1]=[C:2]([C:3]([C@@:4]1([H:12])[O:5][C@:6]1([O:7][H:8])[H:13])([H:10])[H:11])[H:9]"
O       -0.99818104       1.08363568       1.17904958
C       -1.05341909      -0.12229347       0.73090347
C       -1.17467182      -0.45231137      -0.70368497
C        0.29670355      -0.65245268      -0.46092893
O        1.14108311       0.13185415      -1.27885973
C        1.59859979       0.47008926      -0.03162890
O        1.33073766       1.54669611       0.57446261
H        0.09319012       1.54414164       0.98334624
H       -1.28722648      -0.91646231       1.44665784
H       -1.72723304      -1.35058278      -0.95765359
H       -1.40609161       0.40556785      -1.32696417
H        0.62654125      -1.67872162      -0.33177723
H        2.55996760      -0.00916046       0.17707777
13
Frame=8 idx=009462 GeodesicLength=0.501273675222718 rxn_smarts="[O:1]([C@@:2]1([H:9])[C:3]([H:10])([H:11])[C@:4]1([O:5][C:6](=[O:7])[H:13])[H:12])[H:8]>>[O:1]=[C:2]([C:3]([C@@:4]1([H:12])[O:5][C@:6]1([O:7][H:8])[H:13])([H:10])[H:11])[H:9]"
O       -1.00585133       1.07883691       1.18380281
C       -1.06779897      -0.12658227       0.73410812
C       -1.17204220      -0.45468050      -0.70382200
C        0.29722085      -0.65156108      -0.44763598
O        1.13679896       0.12673855      -1.27732623
C        1.61285932       0.47037951      -0.03991619
O        1.34241881       1.53893602       0.58159060
H        0.09792692       1.54106412       0.99404290
H       -1.33995434      -0.91401579       1.44417838
H       -1.72234685      -1.35287730      -0.96297156
H       -1.40029961       0.40465482      -1.32652252
H        0.62789648      -1.67736434      -0.31542053
H        2.59317197       0.01647134       0.13589222
13
Frame=9 idx=009462 GeodesicLength=0.5624702900591713 rxn_smarts="[O:1]([C@@:2]1([H:9])[C:3]([H:10])([H:11])[C@:4]1([O:5][C:6](=[O:7])[H:13])[H:12])[H:8]>>[O:1]=[C:2]([C:3]([C@@:4]1([H:12])[O:5][C@:6]1([O:7][H:8])[H:13])([H:10])[H:11])[H:9]"
O       -1.01351756       1.07387449       1.18864031
C       -1.08233734      -0.13097285       0.73731456
C       -1.16924595      -0.45720467      -0.70376549
C        0.29781754      -0.65054451      -0.43407713
O        1.13268723       0.12139909      -1.27554254
C        1.62731820       0.47045557      -0.04835127
O        1.35458123       1.53039301       0.58922219
H        0.10301884       1.53756961       1.00523435
H       -1.39342233      -0.91053453       1.44052079
H       -1.71708754      -1.35541121      -0.96808647
H       -1.39442851       0.40352052      -1.32592626
H        0.62933866      -1.67584375      -0.29856707
H        2.62527754       0.04329925       0.09338401
13
Frame=10 idx=009462 GeodesicLength=0.6234061157986951 rxn_smarts="[O:1]([C@@:2]1([H:9])[C:3]([H:10])([H:11])[C@:4]1([O:5][C:6](=[O:7])[H:13])[H:12])[H:8]>>[O:1]=[C:2]([C:3]([C@@:4]1([H:12])[O:5][C@:6]1([O:7][H:8])[H:13])([H:10])[H:11])[H:9]"
O       -1.02114798       1.06874557       1.19356385
C       -1.09701847      -0.13547272       0.74051746
C       -1.16628946      -0.45989317      -0.70351400
C        0.29848540      -0.64941457      -0.42025929
O        1.12875173       0.11583236      -1.27348869
C        1.64197212       0.47030450      -0.05691088
O        1.36726076       1.52102836       0.59737280
H        0.10849481       1.53365903       1.01690935
H       -1.44755292      -0.90597081       1.43560925
H       -1.71147286      -1.35820270      -0.97298663
H       -1.38848121       0.40215963      -1.32518051
H        0.63085059      -1.67417559      -0.28121717
H        2.65614747       0.07140009       0.04958447
13
Frame=11 idx=009462 GeodesicLength=0.6840943754986228 rxn_smarts="[O:1]([C@@:2]1([H:9])[C:3]([H:10])([H:11])[C@:4]1([O:5][C:6](=[O:7])[H:13])[H:12])[H:8]>>[O:1]=[C:2]([C:3]([C@@:4]1([H:12])[O:5][C@:6]1([O:7][H:8])[H:13])([H:10])[H:11])[H:9]"
O       -1.02872798       1.06343795       1.19857891
C       -1.11182687      -0.14008883       0.74371840
C       -1.16316719      -0.46274968      -0.70305880
C        0.29922683      -0.64818497      -0.40619259
O        1.12501015       0.11001275      -1.27116150
C        1.65681477       0.46989715      -0.06559040
O        1.38047503       1.51078191       0.60604583
H        0.11437203       1.52931030       1.02908005
H       -1.50230646      -0.90024113       1.42937777
H       -1.70550433      -1.36124950      -0.97765048
H       -1.38244639       0.40056627      -1.32428087
H        0.63243101      -1.67237082      -0.26337906
H        2.68564940       0.10087860       0.00451273
13
Frame=12 idx=009462 GeodesicLength=0.744537925874093 rxn_smarts="[O:1]([C@@:2]1([H:9])[C:3]([H:10])([H:11])[C@:4]1([O:5][C:6](=[O:7])[H:13])[H:12])[H:8]>>[O:1]=[C:2]([C:3]([C@@:4]1([H:12])[O:5][C@:6]1([O:7][H:8])[H:13])([H:10])[H:11])[H:9]"
O       -1.03623566       1.05793785       1.20368893
C       -1.12674769      -0.14482925       0.74691584
C       -1.15987755      -0.46577626      -0.70239285
C        0.30003967      -0.64687107      -0.39188796
O        1.12148145       0.10391683      -1.26855104
C        1.67183961       0.46920527      -0.07437726
O        1.39424371       1.49960162       0.61522930
H        0.12067203       1.52450568       1.04174382
H       -1.55760002      -0.89327277       1.42175777
H       -1.69919369      -1.36454801      -0.98205847
H       -1.37631126       0.39873880      -1.32322331
H        0.63406805      -1.67044343      -0.24506301
H        2.71362134       0.13183473      -0.04178175
13
Frame=13 idx=009462 GeodesicLength=0.8047418265852839 rxn_smarts="[O:1]([C@@:2]1([H:9])[C:3]([H:10])([H:11])[C@:4]1([O:5][C:6](=[O:7])[H:13])[H:12])[H:8]>>[O:1]=[C:2]([C:3]([C@@:4]1([H:12])[O:5][C@:6]1([O:7][H:8])[H:13])([H:10])[H:11])[H:9]"
O       -1.04365113       1.05223745       1.20889253
C       -1.14176602      -0.14969954       0.75010720
C       -1.15641994      -0.46897613      -0.70151230
C        0.30092215      -0.64549182      -0.37735953
O        1.11818391       0.09752044      -1.26565057
C        1.68704140       0.46819592      -0.08325743
O        1.40858668       1.48743169       0.62491506
H        0.12741716       1.51922887       1.05490230
H       -1.61333217      -0.88498403       1.41269046
H       -1.69255454      -1.36809650      -0.98619264
H       -1.37006419       0.39667448      -1.32201011
H        0.63575081      -1.66841365      -0.22628604
H        2.73988587       0.16437283      -0.08923892
13
Frame=14 idx=009462 GeodesicLength=0.864712103119796 rxn_smarts="[O:1]([C@@:2]1([H:9])[C:3]([H:10])([H:11])[C@:4]1([O:5][C:6](=[O:7])[H:13])[H:12])[H:8]>>[O:1]=[C:2]([C:3]([C@@:4]1([H:12])[O:5][C@:6]1([O:7][H:8])[H:13])([H:10])[H:11])[H:9]"
O       -1.05094812       1.04632393       1.21419552
C       -1.15686813      -0.15470540       0.75329028
C       -1.15279370      -0.47234896      -0.70041335
C        0.30187175      -0.64407008      -0.36261885
O        1.11514049       0.09078857      -1.26245201
C        1.70241758       0.46683281      -0.09221583
O        1.42352136       1.47422634       0.63506910
H        0.13463518       1.51345967       1.06855403
H       -1.66939171      -0.87530032       1.40210912
H       -1.68560582      -1.37188619      -0.99003807
H       -1.36368690       0.39437615      -1.32063995
H        0.63746287      -1.66630460      -0.20705870
H        2.76424516       0.19860810      -0.13778129
13
Frame=15 idx=009462 GeodesicLength=0.9244521382781364 rxn_smarts="[O:1]([C@@:2]1([H:9])[C:3]([H:10])([H:11])[C@:4]1([O:5][C:6](=[O:7])[H:13])[H:12])[H:8]>>[O:1]=[C:2]([C:3]([C@@:4]1([H:12])[O:5][C@:6]1([O:7][H:8])[H:13])([H:10])[H:11])[H:9]"
O       -1.05809924       1.04018904       1.21960045
C       -1.17203831      -0.15984989       0.75646216
C       -1.14899688      -0.47589435      -0.69909547
C        0.30288670      -0.64263280      -0.34767879
O        1.11237291       0.08368000      -1.25895252
C        1.71796666       0.46507458      -0.10124048
O        1.43906280       1.45993743       0.64565512
H        0.14235728       1.50717512       1.08270411
H       -1.72565294      -0.86413869       1.38995512
H       -1.67836654      -1.37590763      -0.99358249
H       -1.35715879       0.39184770      -1.31911761
H        0.63918782      -1.66414587      -0.18739269
H        2.78647852       0.23466536      -0.18731690
13
Frame=16 idx=009462 GeodesicLength=0.9839595367014804 rxn_smarts="[O:1]([C@@:2]1([H:9])[C:3]([H:10])([H:11])[C@:4]1([O:5][C:6](=[O:7])[H:13])[H:12])[H:8]>>[O:1]=[C:2]([C:3]([C@@:4]1([H:12])[O:5][C@:6]1([O:7][H:8])[H:13])([H:10])[H:11])[H:9]"
O       -1.06507778       1.03382439       1.22509930
C       -1.18726941      -0.16512896       0.75960939
C       -1.14503050      -0.47960879      -0.69755893
C        0.30396170      -0.64120190      -0.33255119
O        1.10990376       0.07616066      -1.25513890
C        1.73369193       0.46287824      -0.11031265
O        1.45522857       1.44452140       0.65662427
H        0.15061527       1.50035322       1.09733973
H       -1.78193945      -0.85143381       1.37617567
H       -1.67086131      -1.38014639      -0.99681278
H       -1.35045598       0.38909077      -1.31744659
H        0.64090069      -1.66195732      -0.16729932
H        2.80633253       0.27264849      -0.23772800
