10
Frame=0 idx=003686 GeodesicLength=0.0 rxn_smarts="[c:1]1([H:7])[c:2]([H:8])[n:3][c:4]([H:9])[n:5][c:6]1[H:10]>>[C:1]12([H:7])[C:2]([H:8])=[N:3][C:4]1([H:9])[N:5]=[C:6]2[H:10]"
C       -0.69595052       0.07557881       0.39782813
C       -0.14532179       1.26853402      -0.24475552
N        1.06911337       1.07779927      -0.65987678
C        1.13197579      -0.12817991       0.03633127
N        0.80224654      -1.28025086      -0.67531343
C       -0.42471750      -1.20174525      -0.26049753
H       -1.47505320       0.16074368       1.14740565
H       -0.67443332       2.21127624      -0.37036333
H        1.56277035      -0.18332053       1.03027741
H       -1.15062971      -2.00043548      -0.40103586
10
Frame=1 idx=003686 GeodesicLength=0.03740221181395012 rxn_smarts="[c:1]1([H:7])[c:2]([H:8])[n:3][c:4]([H:9])[n:5][c:6]1[H:10]>>[C:1]12([H:7])[C:2]([H:8])=[N:3][C:4]1([H:9])[N:5]=[C:6]2[H:10]"
C       -0.69886565       0.07598878       0.39477339
C       -0.15243475       1.26806670      -0.25056989
N        1.06794682       1.08054283      -0.65038314
C        1.13651023      -0.12869902       0.04057012
N        0.80046268      -1.28273412      -0.66593221
C       -0.43155793      -1.19945847      -0.26642444
H       -1.48331259       0.16160793       1.13875360
H       -0.67604728       2.21482160      -0.36717765
H        1.59023061      -0.18654248       1.02400537
H       -1.15293213      -2.00359375      -0.39761514
10
Frame=2 idx=003686 GeodesicLength=0.07479919330408921 rxn_smarts="[c:1]1([H:7])[c:2]([H:8])[n:3][c:4]([H:9])[n:5][c:6]1[H:10]>>[C:1]12([H:7])[C:2]([H:8])=[N:3][C:4]1([H:9])[N:5]=[C:6]2[H:10]"
C       -0.70197735       0.07642087       0.39163428
C       -0.15955681       1.26760154      -0.25637505
N        1.06670002       1.08328529      -0.64043838
C        1.14096082      -0.12921283       0.04520134
N        0.79859718      -1.28519959      -0.65611235
C       -0.43840738      -1.19716977      -0.27234821
H       -1.49177710       0.16249592       1.12993099
H       -0.67777883       2.21817179      -0.36416181
H        1.61853616      -0.18986313       1.01701320
H       -1.15529672      -2.00653009      -0.39434401
10
Frame=3 idx=003686 GeodesicLength=0.1121802328166556 rxn_smarts="[c:1]1([H:7])[c:2]([H:8])[n:3][c:4]([H:9])[n:5][c:6]1[H:10]>>[C:1]12([H:7])[C:2]([H:8])=[N:3][C:4]1([H:9])[N:5]=[C:6]2[H:10]"
C       -0.70529093       0.07687490       0.38843330
C       -0.16667552       1.26713932      -0.26213349
N        1.06536831       1.08601825      -0.63000405
C        1.14532733      -0.12972121       0.05028223
N        0.79664982      -1.28764290      -0.64580797
C       -0.44525134      -1.19488837      -0.27822266
H       -1.50042273       0.16340523       1.12098953
H       -0.67967355       2.22128949      -0.36142192
H        1.64773199      -0.19328233       1.00922582
H       -1.15776336      -2.00919238      -0.39134078
10
Frame=4 idx=003686 GeodesicLength=0.1495293014669908 rxn_smarts="[c:1]1([H:7])[c:2]([H:8])[n:3][c:4]([H:9])[n:5][c:6]1[H:10]>>[C:1]12([H:7])[C:2]([H:8])=[N:3][C:4]1([H:9])[N:5]=[C:6]2[H:10]"
C       -0.70881521       0.07735183       0.38518586
C       -0.17377809       1.26668147      -0.26781062
N        1.06394756       1.08873349      -0.61903773
C        1.14960586      -0.13022411       0.05587510
N        0.79461978      -1.29005795      -0.63497365
C       -0.45207620      -1.19262111      -0.28400920
H       -1.50922645       0.16433393       1.11197701
H       -0.68176651       2.22414983      -0.35905518
H        1.67785120      -0.19680145       1.00055657
H       -1.16036194      -2.01154591      -0.38870815
10
Frame=5 idx=003686 GeodesicLength=0.18684716815530836 rxn_smarts="[c:1]1([H:7])[c:2]([H:8])[n:3][c:4]([H:9])[n:5][c:6]1[H:10]>>[C:1]12([H:7])[C:2]([H:8])=[N:3][C:4]1([H:9])[N:5]=[C:6]2[H:10]"
C       -0.71257204       0.07785256       0.38188747
C       -0.18085570       1.26622629      -0.27339722
N        1.06244047       1.09141988      -0.60751019
C        1.15379411      -0.13072002       0.06204340
N        0.79251458      -1.29243970      -0.62356723
C       -0.45887171      -1.19037511      -0.28968785
H       -1.51817984       0.16527944       1.10292982
H       -0.68406918       2.22675509      -0.35710744
H        1.70891363      -0.20041266       0.99091968
H       -1.16311434      -2.01358576      -0.38651044
10
Frame=6 idx=003686 GeodesicLength=0.22409568437840982 rxn_smarts="[c:1]1([H:7])[c:2]([H:8])[n:3][c:4]([H:9])[n:5][c:6]1[H:10]>>[C:1]12([H:7])[C:2]([H:8])=[N:3][C:4]1([H:9])[N:5]=[C:6]2[H:10]"
C       -0.71657533       0.07838148       0.37853142
C       -0.18790336       1.26577758      -0.27888575
N        1.06082756       1.09406300      -0.59539258
C        1.15787309      -0.13121225       0.06885714
N        0.79033562      -1.29479741      -0.61153187
C       -0.46561624      -1.18816521      -0.29523011
H       -1.52727747       0.16625073       1.09385659
H       -0.68657048       2.22913215      -0.35559628
H        1.74091538      -0.20411115       0.98019606
H       -1.16600877      -2.01531893      -0.38480461
10
Frame=7 idx=003686 GeodesicLength=0.2613278181620761 rxn_smarts="[c:1]1([H:7])[c:2]([H:8])[n:3][c:4]([H:9])[n:5][c:6]1[H:10]>>[C:1]12([H:7])[C:2]([H:8])=[N:3][C:4]1([H:9])[N:5]=[C:6]2[H:10]"
C       -0.72086829       0.07893940       0.37509285
C       -0.19488334       1.26533316      -0.28424357
N        1.05917158       1.09667753      -0.58259127
C        1.16185381      -0.13168341       0.07639175
N        0.78807222      -1.29706350      -0.59889515
C       -0.47233968      -1.18596280      -0.30068781
H       -1.53657195       0.16723183       1.08475302
H       -0.68926667       2.23124688      -0.35458278
H        1.77388754      -0.20791043       0.96826940
H       -1.16905523      -2.01680866      -0.38350644
10
Frame=8 idx=003686 GeodesicLength=0.29834402177441444 rxn_smarts="[c:1]1([H:7])[c:2]([H:8])[n:3][c:4]([H:9])[n:5][c:6]1[H:10]>>[C:1]12([H:7])[C:2]([H:8])=[N:3][C:4]1([H:9])[N:5]=[C:6]2[H:10]"
C       -0.72542655       0.07953254       0.37155025
C       -0.20181513       1.26489873      -0.28948697
N        1.05735686       1.09922037      -0.56910053
C        1.16566045      -0.13216169       0.08473301
N        0.78572043      -1.29927996      -0.58551361
C       -0.47896485      -1.18378910      -0.30598269
H       -1.54596959       0.16823718       1.07558790
H       -0.69211102       2.23317773      -0.35403044
H        1.80770949      -0.21182828       0.95495687
H       -1.17216009      -2.01800752      -0.38271377
10
Frame=9 idx=003686 GeodesicLength=0.33530933593205975 rxn_smarts="[c:1]1([H:7])[c:2]([H:8])[n:3][c:4]([H:9])[n:5][c:6]1[H:10]>>[C:1]12([H:7])[C:2]([H:8])=[N:3][C:4]1([H:9])[N:5]=[C:6]2[H:10]"
C       -0.73031242       0.08015526       0.36790743
C       -0.20866886       1.26445408      -0.29462615
N        1.05546882       1.10167770      -0.55491146
C        1.16934550      -0.13262026       0.09397203
N        0.78331093      -1.30142984      -0.57138015
C       -0.48551766      -1.18166079      -0.31112940
H       -1.55562437       0.16926756       1.06636200
H       -0.69507592       2.23491776      -0.35390036
H        1.84247269      -0.21578006       0.94013685
H       -1.17539871      -2.01898139      -0.38243079
10
Frame=10 idx=003686 GeodesicLength=0.3721958633315641 rxn_smarts="[c:1]1([H:7])[c:2]([H:8])[n:3][c:4]([H:9])[n:5][c:6]1[H:10]>>[C:1]12([H:7])[C:2]([H:8])=[N:3][C:4]1([H:9])[N:5]=[C:6]2[H:10]"
C       -0.73552529       0.08081719       0.36416477
C       -0.21542270       1.26402016      -0.29960797
N        1.05349379       1.10405983      -0.53990037
C        1.17287960      -0.13307101       0.10422780
N        0.78082799      -1.30348243      -0.55645689
C       -0.49197740      -1.17955909      -0.31613312
H       -1.56561981       0.17033983       1.05694178
H       -0.69814605       2.23649147      -0.35422148
H        1.87817879      -0.21984353       0.92354379
H       -1.17868892      -2.01977242      -0.38255832
10
Frame=11 idx=003686 GeodesicLength=0.4089922400773397 rxn_smarts="[c:1]1([H:7])[c:2]([H:8])[n:3][c:4]([H:9])[n:5][c:6]1[H:10]>>[C:1]12([H:7])[C:2]([H:8])=[N:3][C:4]1([H:9])[N:5]=[C:6]2[H:10]"
C       -0.74107551       0.08152248       0.36032317
C       -0.22205344       1.26359331      -0.30440970
N        1.05142813       1.10634848      -0.52398767
C        1.17624658      -0.13351511       0.11563556
N        0.77827392      -1.30541974      -0.54068217
C       -0.49831743      -1.17748348      -0.32097821
H       -1.57604008       0.17146858       1.04722846
H       -0.70128097       2.23791428      -0.35497671
H        1.91480312      -0.22402256       0.90491078
H       -1.18198433      -2.02040626      -0.38306351
10
Frame=12 idx=003686 GeodesicLength=0.4457019296957116 rxn_smarts="[c:1]1([H:7])[c:2]([H:8])[n:3][c:4]([H:9])[n:5][c:6]1[H:10]>>[C:1]12([H:7])[C:2]([H:8])=[N:3][C:4]1([H:9])[N:5]=[C:6]2[H:10]"
C       -0.74697821       0.08225734       0.35638914
C       -0.22853854       1.26314174      -0.30904340
N        1.04926577       1.10848830      -0.50717744
C        1.17944532      -0.13394352       0.12834652
N        0.77567036      -1.30724473      -0.52390934
C       -0.50450362      -1.17545148      -0.32560203
H       -1.58697752       0.17264741       1.03713605
H       -0.70439010       2.23919836      -0.35606766
H        1.95228824      -0.22822207       0.88394374
H       -1.18528168      -2.02087134      -0.38401558
10
Frame=13 idx=003686 GeodesicLength=0.4823050834500445 rxn_smarts="[c:1]1([H:7])[c:2]([H:8])[n:3][c:4]([H:9])[n:5][c:6]1[H:10]>>[C:1]12([H:7])[C:2]([H:8])=[N:3][C:4]1([H:9])[N:5]=[C:6]2[H:10]"
C       -0.75322421       0.08304041       0.35233681
C       -0.23483503       1.26269029      -0.31347523
N        1.04702064       1.11048751      -0.48935496
C        1.18248208      -0.13436898       0.14248135
N        0.77301656      -1.30892184      -0.50617822
C       -0.51050094      -1.17346043      -0.33004079
H       -1.59838675       0.17390035       1.02665928
H       -0.70745539       2.24036862      -0.35755234
H        1.99036674      -0.23249150       0.86044221
H       -1.18848371      -2.02124443      -0.38531810
10
Frame=14 idx=003686 GeodesicLength=0.5188841378767304 rxn_smarts="[c:1]1([H:7])[c:2]([H:8])[n:3][c:4]([H:9])[n:5][c:6]1[H:10]>>[C:1]12([H:7])[C:2]([H:8])=[N:3][C:4]1([H:9])[N:5]=[C:6]2[H:10]"
C       -0.75979820       0.08385084       0.34817211
C       -0.24090769       1.26223781      -0.31771951
N        1.04469808       1.11231756      -0.47055219
C        1.18539350      -0.13478961       0.15817424
N        0.77033262      -1.31048199      -0.48735538
C       -0.51627622      -1.17154760      -0.33425556
H       -1.61032447       0.17520383       1.01570563
H       -0.71036768       2.24149278      -0.35930796
H        2.02883323      -0.23671666       0.83414075
H       -1.19158315      -2.02156697      -0.38700212
10
Frame=15 idx=003686 GeodesicLength=0.5553238240922649 rxn_smarts="[c:1]1([H:7])[c:2]([H:8])[n:3][c:4]([H:9])[n:5][c:6]1[H:10]>>[C:1]12([H:7])[C:2]([H:8])=[N:3][C:4]1([H:9])[N:5]=[C:6]2[H:10]"
C       -0.76664503       0.08469780       0.34391378
C       -0.24666692       1.26176675      -0.32169997
N        1.04234390       1.11400533      -0.45056640
C        1.18819808      -0.13521176       0.17550478
N        0.76761853      -1.31175971      -0.46760119
C       -0.52176488      -1.16962845      -0.33827384
H       -1.62277039       0.17655369       1.00424013
H       -0.71311350       2.24246202      -0.36149126
H        2.06719956      -0.24105043       0.80480739
H       -1.19439934      -2.02183524      -0.38883342
10
Frame=16 idx=003686 GeodesicLength=0.5914007100185982 rxn_smarts="[c:1]1([H:7])[c:2]([H:8])[n:3][c:4]([H:9])[n:5][c:6]1[H:10]>>[C:1]12([H:7])[C:2]([H:8])=[N:3][C:4]1([H:9])[N:5]=[C:6]2[H:10]"
C       -0.77361381       0.08555179       0.33959129
C       -0.25206176       1.26115937      -0.32547867
N        1.03988214       1.11536151      -0.42974178
C        1.19095698      -0.13564521       0.19434353
N        0.76489603      -1.31285027      -0.44678474
C       -0.52685155      -1.16772109      -0.34203748
H       -1.63548594       0.17795110       0.99235761
H       -0.71549303       2.24321460      -0.36378840
H        2.10467483      -0.24510973       0.77255983
H       -1.19690388      -2.02191207      -0.39102119
