16
Frame=0 idx=004720 GeodesicLength=0.0 rxn_smarts="[C:1]([C:2]1([C:3]([H:10])([H:11])[H:12])[C:4]([H:13])([H:14])[C@:5]1([O:6][H:16])[H:15])([H:7])([H:8])[H:9]>>[C:1]([C:2](=[C:3]([H:10])[H:11])[C:4]([C:5][O:6][H:16])([H:13])[H:14])([H:7])([H:8])[H:9].[H:12][H:15]"
C       -0.85665641      -0.14702930      -1.43286463
C        0.21382520       0.06429448      -0.38967299
C        1.44578946      -0.54180683      -0.52059298
C        0.15807715       1.29798361       0.57780391
C       -0.46240431       0.13744055       1.17684460
O       -1.78482192       0.28429319       1.35811681
H       -0.89932807      -1.19567305      -1.73289315
H       -1.84117813       0.14037829      -1.06262699
H       -0.64724213       0.44987633      -2.32298522
H        2.34754707      -0.11161371      -0.11152825
H        1.58717825      -1.31741224      -1.26619941
H        1.44999232      -1.26339201       1.33153766
H        1.16143256       1.54992919       0.89639199
H       -0.46238945       2.15258751       0.31158710
H        0.75336568      -0.91644235       1.66118632
H       -2.16318729      -0.58341359       1.52589527
16
Frame=1 idx=004720 GeodesicLength=0.07352606408309494 rxn_smarts="[C:1]([C:2]1([C:3]([H:10])([H:11])[H:12])[C:4]([H:13])([H:14])[C@:5]1([O:6][H:16])[H:15])([H:7])([H:8])[H:9]>>[C:1]([C:2](=[C:3]([H:10])[H:11])[C:4]([C:5][O:6][H:16])([H:13])[H:14])([H:7])([H:8])[H:9].[H:12][H:15]"
C       -0.85390183      -0.14582089      -1.43509542
C        0.21482111       0.06439533      -0.39057399
C        1.44538227      -0.55247960      -0.51302181
C        0.15609692       1.29775724       0.57103068
C       -0.45979331       0.13995977       1.18777495
O       -1.78334620       0.28670855       1.36566653
H       -0.89614631      -1.19357320      -1.73838453
H       -1.83942972       0.13953418      -1.06581813
H       -0.64383105       0.45476267      -2.32265363
H        2.34578730      -0.11478866      -0.10742053
H        1.59503315      -1.30543495      -1.27994046
H        1.44925410      -1.27695192       1.32279024
H        1.15628942       1.55850208       0.89293963
H       -0.47014066       2.14572043       0.29773290
H        0.74597743      -0.91914847       1.67330317
H       -2.16205264      -0.57914258       1.54167039
16
Frame=2 idx=004720 GeodesicLength=0.14716814801796563 rxn_smarts="[C:1]([C:2]1([C:3]([H:10])([H:11])[H:12])[C:4]([H:13])([H:14])[C@:5]1([O:6][H:16])[H:15])([H:7])([H:8])[H:9]>>[C:1]([C:2](=[C:3]([H:10])[H:11])[C:4]([C:5][O:6][H:16])([H:13])[H:14])([H:7])([H:8])[H:9].[H:12][H:15]"
C       -0.85116837      -0.14467620      -1.43739696
C        0.21580593       0.06446675      -0.39156158
C        1.44486550      -0.56313661      -0.50569101
C        0.15414508       1.29743890       0.56424763
C       -0.45709766       0.14264264       1.19873336
O       -1.78178994       0.28920432       1.37323837
H       -0.89291419      -1.19152827      -1.74394925
H       -1.83770195       0.13859718      -1.06907543
H       -0.64051006       0.45959140      -2.32238222
H        2.34383411      -0.11811965      -0.10327959
H        1.60315001      -1.29287731      -1.29310680
H        1.44859378      -1.29083246       1.31377516
H        1.15112429       1.56706778       0.88926719
H       -0.47783983       2.13870709       0.28410291
H        0.73832552      -0.92184915       1.68552266
H       -2.16082224      -0.57469641       1.55755554
16
Frame=3 idx=004720 GeodesicLength=0.22085929163303583 rxn_smarts="[C:1]([C:2]1([C:3]([H:10])([H:11])[H:12])[C:4]([H:13])([H:14])[C@:5]1([O:6][H:16])[H:15])([H:7])([H:8])[H:9]>>[C:1]([C:2](=[C:3]([H:10])[H:11])[C:4]([C:5][O:6][H:16])([H:13])[H:14])([H:7])([H:8])[H:9].[H:12][H:15]"
C       -0.84845880      -0.14357380      -1.43977501
C        0.21677827       0.06452377      -0.39264076
C        1.44424729      -0.57374570      -0.49863013
C        0.15221636       1.29702918       0.55747053
C       -0.45431359       0.14547872       1.20971685
O       -1.78015149       0.29175449       1.38083047
H       -0.88965281      -1.18951872      -1.74958442
H       -1.83599460       0.13760568      -1.07240866
H       -0.63727231       0.46437512      -2.32218038
H        2.34170486      -0.12156555      -0.09914857
H        1.61144334      -1.27991330      -1.30556434
H        1.44810941      -1.30497197       1.30447556
H        1.14593109       1.57562518       0.88539408
H       -0.48549785       2.13155486       0.27073016
H        0.73040962      -0.92454595       1.69783749
H       -2.15949878      -0.57011200       1.57347714
16
Frame=4 idx=004720 GeodesicLength=0.29458567388251383 rxn_smarts="[C:1]([C:2]1([C:3]([H:10])([H:11])[H:12])[C:4]([H:13])([H:14])[C@:5]1([O:6][H:16])[H:15])([H:7])([H:8])[H:9]>>[C:1]([C:2](=[C:3]([H:10])[H:11])[C:4]([C:5][O:6][H:16])([H:13])[H:14])([H:7])([H:8])[H:9].[H:12][H:15]"
C       -0.84577530      -0.14249047      -1.44223675
C        0.21773762       0.06458117      -0.39381563
C        1.44353965      -0.58427784      -0.49186312
C        0.15030467       1.29652915       0.55071830
C       -0.45144081       0.14845784       1.22072539
O       -1.77843399       0.29433414       1.38844257
H       -0.88638598      -1.18752402      -1.75528668
H       -1.83430779       0.13660416      -1.07583083
H       -0.63410701       0.46912624      -2.32206058
H        2.33941941      -0.12507889      -0.09508008
H        1.61981758      -1.26673495      -1.31719756
H        1.44793353      -1.31929988       1.29489004
H        1.14070410       1.58417226       0.88134566
H       -0.49312763       2.12427310       0.25764903
H        0.72221418      -0.92724334       1.71024336
H       -2.15809221      -0.56542865       1.58935690
16
Frame=5 idx=004720 GeodesicLength=0.3678074657890885 rxn_smarts="[C:1]([C:2]1([C:3]([H:10])([H:11])[H:12])[C:4]([H:13])([H:14])[C@:5]1([O:6][H:16])[H:15])([H:7])([H:8])[H:9]>>[C:1]([C:2](=[C:3]([H:10])[H:11])[C:4]([C:5][O:6][H:16])([H:13])[H:14])([H:7])([H:8])[H:9].[H:12][H:15]"
C       -0.84311278      -0.14142091      -1.44476563
C        0.21868722       0.06465508      -0.39508086
C        1.44274591      -0.59468974      -0.48538961
C        0.14840528       1.29595149       0.54398978
C       -0.44845540       0.15157761       1.23175681
O       -1.77661169       0.29691044       1.39607609
H       -0.88311759      -1.18554338      -1.76102158
H       -1.83263117       0.13560279      -1.07932914
H       -0.63100722       0.47384045      -2.32200863
H        2.33698104      -0.12868304      -0.09102643
H        1.62825255      -1.25342048      -1.32798265
H        1.44786394      -1.33383973       1.28488950
H        1.13542467       1.59273673       0.87711834
H       -0.50073400       2.11686733       0.24486161
H        0.71387359      -0.92984192       1.72278490
H       -2.15656435      -0.56070272       1.60512750
16
Frame=6 idx=004720 GeodesicLength=0.4409554246274503 rxn_smarts="[C:1]([C:2]1([C:3]([H:10])([H:11])[H:12])[C:4]([H:13])([H:14])[C@:5]1([O:6][H:16])[H:15])([H:7])([H:8])[H:9]>>[C:1]([C:2](=[C:3]([H:10])[H:11])[C:4]([C:5][O:6][H:16])([H:13])[H:14])([H:7])([H:8])[H:9].[H:12][H:15]"
C       -0.84047316      -0.14035124      -1.44738210
C        0.21962597       0.06474356      -0.39643788
C        1.44189546      -0.60498092      -0.47923461
C        0.14651198       1.29529777       0.53731113
C       -0.44538127       0.15483534       1.24281862
O       -1.77472070       0.29948815       1.40373968
H       -0.87986469      -1.18356810      -1.76681884
H       -1.83097639       0.13463052      -1.08292535
H       -0.62795584       0.47853397      -2.32204841
H        2.33442404      -0.13229412      -0.08705939
H        1.63666451      -1.24013423      -1.33788956
H        1.44818241      -1.34857536       1.27455000
H        1.13009684       1.60130930       0.87275155
H       -0.50833113       2.10935842       0.23239783
H        0.70527187      -0.93235984       1.73545056
H       -2.15496989      -0.55593323       1.62077679
16
Frame=7 idx=004720 GeodesicLength=0.5146088254032356 rxn_smarts="[C:1]([C:2]1([C:3]([H:10])([H:11])[H:12])[C:4]([H:13])([H:14])[C@:5]1([O:6][H:16])[H:15])([H:7])([H:8])[H:9]>>[C:1]([C:2](=[C:3]([H:10])[H:11])[C:4]([C:5][O:6][H:16])([H:13])[H:14])([H:7])([H:8])[H:9].[H:12][H:15]"
C       -0.83784037      -0.13925541      -1.45007506
C        0.22055016       0.06485139      -0.39787138
C        1.44097758      -0.61509644      -0.47335156
C        0.14461210       1.29454972       0.53067810
C       -0.44221984       0.15822369       1.25390955
O       -1.77273691       0.30205138       1.41140359
H       -0.87661250      -1.18154980      -1.77265595
H       -1.82931147       0.13370991      -1.08663260
H       -0.62493908       0.48322530      -2.32215930
H        2.33171634      -0.13594482      -0.08318195
H        1.64495498      -1.22701087      -1.34686632
H        1.44908857      -1.36341157       1.26366683
H        1.12468730       1.60987540       0.86825395
H       -0.51592962       2.10171057       0.22023218
H        0.69628220      -0.93479429       1.74838304
H       -2.15327943      -0.55113416       1.63626689
16
Frame=8 idx=004720 GeodesicLength=0.5876658626203974 rxn_smarts="[C:1]([C:2]1([C:3]([H:10])([H:11])[H:12])[C:4]([H:13])([H:14])[C@:5]1([O:6][H:16])[H:15])([H:7])([H:8])[H:9]>>[C:1]([C:2](=[C:3]([H:10])[H:11])[C:4]([C:5][O:6][H:16])([H:13])[H:14])([H:7])([H:8])[H:9].[H:12][H:15]"
C       -0.83523109      -0.13814144      -1.45286272
C        0.22144936       0.06497466      -0.39938987
C        1.44001265      -0.62506115      -0.46779034
C        0.14270013       1.29372554       0.52410366
C       -0.43898284       0.16174486       1.26501768
O       -1.77070210       0.30461431       1.41908048
H       -0.87338334      -1.17951740      -1.77857809
H       -1.82767353       0.13283767      -1.09045376
H       -0.62195244       0.48792403      -2.32235585
H        2.32895034      -0.13949373      -0.07943594
H        1.65318084      -1.21410219      -1.35498979
H        1.45040493      -1.37849619       1.25248294
H        1.11919654       1.61845239       0.86364804
H       -0.52352962       2.09396780       0.20838854
H        0.68709258      -0.93713231       1.76149068
H       -2.15153240      -0.54629685       1.65164434
16
Frame=9 idx=004720 GeodesicLength=0.6610042745621749 rxn_smarts="[C:1]([C:2]1([C:3]([H:10])([H:11])[H:12])[C:4]([H:13])([H:14])[C@:5]1([O:6][H:16])[H:15])([H:7])([H:8])[H:9]>>[C:1]([C:2](=[C:3]([H:10])[H:11])[C:4]([C:5][O:6][H:16])([H:13])[H:14])([H:7])([H:8])[H:9].[H:12][H:15]"
C       -0.83261893      -0.13701845      -1.45572317
C        0.22234145       0.06511657      -0.40097694
C        1.43901602      -0.63484058      -0.46250196
C        0.14077678       1.29283511       0.51758187
C       -0.43565916       0.16541289       1.27616958
O       -1.76858713       0.30715727       1.42678910
H       -0.87014431      -1.17747394      -1.78453799
H       -1.82602775       0.13199383      -1.09437495
H       -0.61898116       0.49260860      -2.32262604
H        2.32605256      -0.14309720      -0.07568930
H        1.66130808      -1.20135469      -1.36233276
H        1.45217758      -1.39389409       1.24063467
H        1.11361668       1.62706762       0.85891280
H       -0.53114340       2.08611701       0.19683715
H        0.67757455      -0.93917280       1.77496028
H       -2.14970186      -0.54145715       1.66687765
16
Frame=10 idx=004720 GeodesicLength=0.7339171998683863 rxn_smarts="[C:1]([C:2]1([C:3]([H:10])([H:11])[H:12])[C:4]([H:13])([H:14])[C@:5]1([O:6][H:16])[H:15])([H:7])([H:8])[H:9]>>[C:1]([C:2](=[C:3]([H:10])[H:11])[C:4]([C:5][O:6][H:16])([H:13])[H:14])([H:7])([H:8])[H:9].[H:12][H:15]"
C       -0.83002031      -0.13588402      -1.45866272
C        0.22320504       0.06526588      -0.40262688
C        1.43799018      -0.64443787      -0.45750043
C        0.13882943       1.29186609       0.51110946
C       -0.43226105       0.16922848       1.28733918
O       -1.76641257       0.30971011       1.43449823
H       -0.86690491      -1.17541389      -1.79056076
H       -1.82439801       0.13117663      -1.09840826
H       -0.61604148       0.49729750      -2.32295850
H        2.32308179      -0.14662428      -0.07197945
H        1.66936360      -1.18879349      -1.36893575
H        1.45435702      -1.40973152       1.22829911
H        1.10792774       1.63569638       0.85406516
H       -0.53877344       2.07815989       0.18556710
H        0.66785813      -0.94094935       1.78876263
H       -2.14780117      -0.53656655       1.68199188
16
Frame=11 idx=004720 GeodesicLength=0.8068758529609518 rxn_smarts="[C:1]([C:2]1([C:3]([H:10])([H:11])[H:12])[C:4]([H:13])([H:14])[C@:5]1([O:6][H:16])[H:15])([H:7])([H:8])[H:9]>>[C:1]([C:2](=[C:3]([H:10])[H:11])[C:4]([C:5][O:6][H:16])([H:13])[H:14])([H:7])([H:8])[H:9].[H:12][H:15]"
C       -0.82742281      -0.13474428      -1.46168527
C        0.22404435       0.06541649      -0.40433319
C        1.43694966      -0.65384174      -0.45277450
C        0.13685713       1.29083063       0.50469509
C       -0.42880746       0.17319940       1.29854592
O       -1.76419899       0.31227278       1.44222582
H       -0.86365466      -1.17334856      -1.79665500
H       -1.82277751       0.13037795      -1.10255928
H       -0.61310857       0.50198808      -2.32335985
H        2.32003508      -0.15011511      -0.06828364
H        1.67733830      -1.17644224      -1.37486478
H        1.45704076      -1.42605683       1.21529364
H        1.10212758       1.64436214       0.84911773
H       -0.54641926       2.07010679       0.17457333
H        0.65785830      -0.94237041       1.80305553
H       -2.14586191      -0.53163510       1.69700845
16
Frame=12 idx=004720 GeodesicLength=0.8800252190687723 rxn_smarts="[C:1]([C:2]1([C:3]([H:10])([H:11])[H:12])[C:4]([H:13])([H:14])[C@:5]1([O:6][H:16])[H:15])([H:7])([H:8])[H:9]>>[C:1]([C:2](=[C:3]([H:10])[H:11])[C:4]([C:5][O:6][H:16])([H:13])[H:14])([H:7])([H:8])[H:9].[H:12][H:15]"
C       -0.82482179      -0.13359329      -1.46478462
C        0.22485145       0.06556191      -0.40608250
C        1.43588865      -0.66303776      -0.44829864
C        0.13485104       1.28971279       0.49833565
C       -0.42530195       0.17732452       1.30978441
O       -1.76193614       0.31484340       1.44995132
H       -0.86038715      -1.17125715      -1.80281041
H       -1.82115370       0.12960212      -1.10683802
H       -0.61017999       0.50668242      -2.32381763
H        2.31689479      -0.15359512      -0.06456987
H        1.68520367      -1.16430014      -1.38014670
H        1.46030175      -1.44292621       1.20149338
H        1.09619545       1.65304270       0.84407345
H       -0.55408574       2.06193504       0.16383593
H        0.64754949      -0.94333773       1.81796517
H       -2.14386984      -0.52665750       1.71190908
16
Frame=13 idx=004720 GeodesicLength=0.9531231113712753 rxn_smarts="[C:1]([C:2]1([C:3]([H:10])([H:11])[H:12])[C:4]([H:13])([H:14])[C@:5]1([O:6][H:16])[H:15])([H:7])([H:8])[H:9]>>[C:1]([C:2](=[C:3]([H:10])[H:11])[C:4]([C:5][O:6][H:16])([H:13])[H:14])([H:7])([H:8])[H:9].[H:12][H:15]"
C       -0.82222079      -0.13245576      -1.46796620
C        0.22562312       0.06568693      -0.40787128
C        1.43483157      -0.67203939      -0.44408794
C        0.13280783       1.28852744       0.49202206
C       -0.42175823       0.18162452       1.32105674
O       -1.75965354       0.31744672       1.45768951
H       -0.85708405      -1.16917328      -1.80905634
H       -1.81954770       0.12880475      -1.11123944
H       -0.60726314       0.51137391      -2.32433424
H        2.31367771      -0.15705579      -0.06074977
H        1.69305683      -1.15223314      -1.38490718
H        1.46398055      -1.46061197       1.18684887
H        1.09013214       1.66176246       0.83891748
H       -0.56177946       2.05366339       0.15333182
H        0.63704665      -0.94371897       1.83357426
H       -2.14184950      -0.52160181       1.72677166
16
Frame=14 idx=004720 GeodesicLength=1.026157089389306 rxn_smarts="[C:1]([C:2]1([C:3]([H:10])([H:11])[H:12])[C:4]([H:13])([H:14])[C@:5]1([O:6][H:16])[H:15])([H:7])([H:8])[H:9]>>[C:1]([C:2](=[C:3]([H:10])[H:11])[C:4]([C:5][O:6][H:16])([H:13])[H:14])([H:7])([H:8])[H:9].[H:12][H:15]"
C       -0.81961309      -0.13134713      -1.47122536
C        0.22634932       0.06578145      -0.40969109
C        1.43377262      -0.68083492      -0.44013383
C        0.13071470       1.28727835       0.48573333
C       -0.41817824       0.18611882       1.33235286
O       -1.75734265       0.32009239       1.46542735
H       -0.85370855      -1.16710314      -1.81540442
H       -1.81795181       0.12793736      -1.11575844
H       -0.60436940       0.51606231      -2.32489070
H        2.31037433      -0.16055626      -0.05669574
H        1.70096589      -1.14010138      -1.38921850
H        1.46793295      -1.47935586       1.17117494
H        1.08391073       1.67053757       0.83362005
H       -0.56951553       2.04528080       0.14302174
H        0.62642640      -0.94335066       1.85002421
H       -2.13976768      -0.51643969       1.74166361
16
Frame=15 idx=004720 GeodesicLength=1.0992952663757687 rxn_smarts="[C:1]([C:2]1([C:3]([H:10])([H:11])[H:12])[C:4]([H:13])([H:14])[C@:5]1([O:6][H:16])[H:15])([H:7])([H:8])[H:9]>>[C:1]([C:2](=[C:3]([H:10])[H:11])[C:4]([C:5][O:6][H:16])([H:13])[H:14])([H:7])([H:8])[H:9].[H:12][H:15]"
C       -0.81699650      -0.13026420      -1.47455428
C        0.22702639       0.06583326      -0.41152708
C        1.43271694      -0.68943144      -0.43642646
C        0.12857408       1.28595103       0.47947981
C       -0.41457712       0.19079998       1.34367994
O       -1.75501636       0.32277526       1.47316295
H       -0.85027605      -1.16504175      -1.82183534
H       -1.81636151       0.12702642      -1.12040439
H       -0.60148134       0.52074285      -2.32548434
H        2.30695856      -0.16409881      -0.05241703
H        1.70888692      -1.12792285      -1.39309681
H        1.47231492      -1.49918770       1.15435592
H        1.07753375       1.67934249       0.82819309
H       -0.57727989       2.03678296       0.13290923
H        0.61563852      -0.94211912       1.86745051
H       -2.13766129      -0.51118838       1.75651428
16
Frame=16 idx=004720 GeodesicLength=1.1724401688050987 rxn_smarts="[C:1]([C:2]1([C:3]([H:10])([H:11])[H:12])[C:4]([H:13])([H:14])[C@:5]1([O:6][H:16])[H:15])([H:7])([H:8])[H:9]>>[C:1]([C:2](=[C:3]([H:10])[H:11])[C:4]([C:5][O:6][H:16])([H:13])[H:14])([H:7])([H:8])[H:9].[H:12][H:15]"
C       -0.81437539      -0.12923166      -1.47796147
C        0.22764621       0.06583075      -0.41337590
C        1.43167590      -0.69782678      -0.43297322
C        0.12637380       1.28455614       0.47324860
C       -0.41096396       0.19569366       1.35503702
O       -1.75269078       0.32551118       1.48089873
H       -0.84676200      -1.16301334      -1.82837698
H       -1.81479250       0.12602347      -1.12518152
H       -0.59861415       0.52540083      -2.32611806
H        2.30343784      -0.16774684      -0.04775500
H        1.71693661      -1.11551941      -1.39663174
H        1.47692227      -1.52041398       1.13618339
H        1.07098793       1.68819912       0.82261545
H       -0.58509404       2.02816898       0.12296480
H        0.60483583      -0.93981537       1.88602342
H       -2.13552357      -0.50581676       1.77140247
