14
Frame=0 idx=003575 GeodesicLength=0.0 rxn_smarts="[C:1]([C@@:2]1([H:10])[O:3][C:4]([H:11])([H:12])[C@:5]1([O:6][H:14])[H:13])([H:7])([H:8])[H:9]>>[C-:2]1([H:10])[O+:3]=[C:4]([H:12])[C:5]1([O:6][H:14])[H:13].[C:1]([H:7])([H:8])([H:9])[H:11]"
C        1.11130334       1.04359119       0.51532915
C        0.42538120      -1.09897958      -0.35052754
O       -0.04655442      -1.48525515       0.81541457
C       -1.07215972      -0.50747967       0.77212654
C       -0.88848108      -0.51762546      -0.76646504
O       -1.04984583       0.57251862      -1.58272487
H        0.83912138       2.04012406       0.87933393
H        1.83987299       0.61828421       1.20449629
H        1.59187296       1.17633905      -0.45476180
H        1.31394529      -1.53363716      -0.78692658
H       -0.09584330       0.53999547       0.82509129
H       -1.97421390      -0.78431171       1.31321960
H       -1.49218038      -1.34403742      -1.15473272
H       -0.50221850       1.28047360      -1.22887287
14
Frame=1 idx=003575 GeodesicLength=0.06426939511718464 rxn_smarts="[C:1]([C@@:2]1([H:10])[O:3][C:4]([H:11])([H:12])[C@:5]1([O:6][H:14])[H:13])([H:7])([H:8])[H:9]>>[C-:2]1([H:10])[O+:3]=[C:4]([H:12])[C:5]1([O:6][H:14])[H:13].[C:1]([H:7])([H:8])([H:9])[H:11]"
C        1.12059460       1.03680371       0.51193135
C        0.43044735      -1.08769140      -0.34379772
O       -0.05034601      -1.48318153       0.81959248
C       -1.08060125      -0.50880829       0.77124135
C       -0.88878424      -0.52009943      -0.76680299
O       -1.05236984       0.56982244      -1.58435393
H        0.85628988       2.03654633       0.87245038
H        1.85471957       0.61685045       1.19863393
H        1.59814078       1.17541509      -0.45916612
H        1.31505174      -1.52952821      -0.78100727
H       -0.11097916       0.55405221       0.84343516
H       -1.98600305      -0.79699888       1.30100836
H       -1.48521705      -1.34905072      -1.16049373
H       -0.52094332       1.28586821      -1.22267125
14
Frame=2 idx=003575 GeodesicLength=0.12854039878896006 rxn_smarts="[C:1]([C@@:2]1([H:10])[O:3][C:4]([H:11])([H:12])[C@:5]1([O:6][H:14])[H:13])([H:7])([H:8])[H:9]>>[C-:2]1([H:10])[O+:3]=[C:4]([H:12])[C:5]1([O:6][H:14])[H:13].[C:1]([H:7])([H:8])([H:9])[H:11]"
C        1.12980469       1.03001478       0.50859377
C        0.43534376      -1.07654928      -0.33716295
O       -0.05411513      -1.48112196       0.82369762
C       -1.08883425      -0.50999516       0.77033165
C       -0.88904458      -0.52257501      -0.76716132
O       -1.05467770       0.56718888      -1.58595983
H        0.87270480       2.03267893       0.86570151
H        1.86958481       0.61549391       1.19268719
H        1.60449379       1.17451779      -0.46338855
H        1.31600727      -1.52540944      -0.77518229
H       -0.12602226       0.56806020       0.86176406
H       -1.99731337      -0.80936399       1.28884930
H       -1.47841019      -1.35388955      -1.16612025
H       -0.53952164       1.29094991      -1.21664990
14
Frame=3 idx=003575 GeodesicLength=0.19279251263929342 rxn_smarts="[C:1]([C@@:2]1([H:10])[O:3][C:4]([H:11])([H:12])[C@:5]1([O:6][H:14])[H:13])([H:7])([H:8])[H:9]>>[C-:2]1([H:10])[O+:3]=[C:4]([H:12])[C:5]1([O:6][H:14])[H:13].[C:1]([H:7])([H:8])([H:9])[H:11]"
C        1.13895882       1.02322041       0.50530749
C        0.44007934      -1.06553792      -0.33061763
O       -0.05785759      -1.47906813       0.82773498
C       -1.09686903      -0.51104966       0.76939494
C       -0.88925839      -0.52504861      -0.76753740
O       -1.05678882       0.56462397      -1.58753325
H        0.88838748       2.02852509       0.85909186
H        1.88446930       0.61419424       1.18665344
H        1.61092634       1.17364458      -0.46744805
H        1.31681558      -1.52127634      -0.76944323
H       -0.14101526       0.58202926       0.88009298
H       -2.00815566      -0.82141952       1.27674571
H       -1.47174270      -1.35855910      -1.17161774
H       -0.55794941       1.29572171      -1.21082410
14
Frame=4 idx=003575 GeodesicLength=0.2570437481070849 rxn_smarts="[C:1]([C@@:2]1([H:10])[O:3][C:4]([H:11])([H:12])[C@:5]1([O:6][H:14])[H:13])([H:7])([H:8])[H:9]>>[C-:2]1([H:10])[O+:3]=[C:4]([H:12])[C:5]1([O:6][H:14])[H:13].[C:1]([H:7])([H:8])([H:9])[H:11]"
C        1.14809068       1.01641771       0.50206047
C        0.44466713      -1.05465028      -0.32415025
O       -0.06157612      -1.47700837       0.83171892
C       -1.10472540      -0.51197422       0.76842872
C       -0.88942064      -0.52752315      -0.76793392
O       -1.05869867       0.56211768      -1.58908715
H        0.90338023       2.02409398       0.85263241
H        1.89940390       0.61293723       1.18051064
H        1.61743433       1.17279611      -0.47137581
H        1.31748974      -1.51713792      -0.76376692
H       -0.15599690       0.59597633       0.89844443
H       -2.01857040      -0.83318312       1.26467601
H       -1.46519575      -1.36307572      -1.17700366
H       -0.57628212       1.30021373      -1.20515388
14
Frame=5 idx=003575 GeodesicLength=0.3213193599223589 rxn_smarts="[C:1]([C@@:2]1([H:10])[O:3][C:4]([H:11])([H:12])[C@:5]1([O:6][H:14])[H:13])([H:7])([H:8])[H:9]>>[C-:2]1([H:10])[O+:3]=[C:4]([H:12])[C:5]1([O:6][H:14])[H:13].[C:1]([H:7])([H:8])([H:9])[H:11]"
C        1.15723307       1.00961023       0.49884851
C        0.44911859      -1.04387865      -0.31776346
O       -0.06526911      -1.47493701       0.83565271
C       -1.11242235      -0.51277690       0.76743443
C       -0.88953544      -0.53000246      -0.76835335
O       -1.06043034       0.55966872      -1.59061786
H        0.91770975       2.01939912       0.84633726
H        1.91440703       0.61171740       1.17426276
H        1.62402896       1.17197794      -0.47518888
H        1.31804307      -1.51299982      -0.75815786
H       -0.17100983       0.60991781       0.91684048
H       -2.02858642      -0.84466752       1.25264877
H       -1.45876795      -1.36745680      -1.18229222
H       -0.59451902       1.30442793      -1.19965129
14
Frame=6 idx=003575 GeodesicLength=0.3855821940468047 rxn_smarts="[C:1]([C@@:2]1([H:10])[O:3][C:4]([H:11])([H:12])[C@:5]1([O:6][H:14])[H:13])([H:7])([H:8])[H:9]>>[C-:2]1([H:10])[O+:3]=[C:4]([H:12])[C:5]1([O:6][H:14])[H:13].[C:1]([H:7])([H:8])([H:9])[H:11]"
C        1.16640235       1.00278629       0.49565991
C        0.45343921      -1.03320604      -0.31144971
O       -0.06892973      -1.47284350       0.83954232
C       -1.11996008      -0.51346429       0.76640841
C       -0.88959518      -0.53247816      -0.76879113
O       -1.06199816       0.55728647      -1.59211535
H        0.93138757       2.01442947       0.84020408
H        1.92947126       0.61051124       1.16790686
H        1.63069774       1.17118811      -0.47890192
H        1.31847231      -1.50885371      -0.75260386
H       -0.18609589       0.62385912       0.93529178
H       -2.03819827      -0.85588141       1.24066480
H       -1.45243873      -1.37169613      -1.18748223
H       -0.61265440       1.30836254      -1.19433396
14
Frame=7 idx=003575 GeodesicLength=0.449882049326253 rxn_smarts="[C:1]([C@@:2]1([H:10])[O:3][C:4]([H:11])([H:12])[C@:5]1([O:6][H:14])[H:13])([H:7])([H:8])[H:9]>>[C-:2]1([H:10])[O+:3]=[C:4]([H:12])[C:5]1([O:6][H:14])[H:13].[C:1]([H:7])([H:8])([H:9])[H:11]"
C        1.17563694       0.99595022       0.49248535
C        0.45764632      -1.02263445      -0.30520517
O       -0.07256079      -1.47072102       0.84339791
C       -1.12736405      -0.51403694       0.76534962
C       -0.88959901      -0.53495902      -0.76925241
O       -1.06340142       0.55496105      -1.59358921
H        0.94445387       2.00919812       0.83424916
H        1.94463767       0.60931740       1.16142619
H        1.63745039       1.17043916      -0.48254203
H        1.31879737      -1.50472373      -0.74709548
H       -0.20129604       0.63782350       0.95382324
H       -2.04745995      -0.86683577       1.22870639
H       -1.44620042      -1.37582163      -1.19259432
H       -0.63074087       1.31204310      -1.18915925
14
Frame=8 idx=003575 GeodesicLength=0.5141847539986475 rxn_smarts="[C:1]([C@@:2]1([H:10])[O:3][C:4]([H:11])([H:12])[C@:5]1([O:6][H:14])[H:13])([H:7])([H:8])[H:9]>>[C-:2]1([H:10])[O+:3]=[C:4]([H:12])[C:5]1([O:6][H:14])[H:13].[C:1]([H:7])([H:8])([H:9])[H:11]"
C        1.18495289       0.98908566       0.48930753
C        0.46173563      -1.01214299      -0.29900994
O       -0.07616729      -1.46854662       0.84724001
C       -1.13463419      -0.51449478       0.76425645
C       -0.88953733      -0.53743504      -0.76973175
O       -1.06462709       0.55269227      -1.59504221
H        0.95693776       2.00369897       0.82846741
H        1.95991451       0.60811127       1.15479923
H        1.64426953       1.16971707      -0.48613618
H        1.31900431      -1.50060080      -0.74159805
H       -0.21664794       0.65181796       0.97244980
H       -2.05636366      -0.87756962       1.21673862
H       -1.44001936      -1.37981870      -1.19762991
H       -0.64881777       1.31548534      -1.18411101
14
Frame=9 idx=003575 GeodesicLength=0.5785362342584982 rxn_smarts="[C:1]([C@@:2]1([H:10])[O:3][C:4]([H:11])([H:12])[C@:5]1([O:6][H:14])[H:13])([H:7])([H:8])[H:9]>>[C-:2]1([H:10])[O+:3]=[C:4]([H:12])[C:5]1([O:6][H:14])[H:13].[C:1]([H:7])([H:8])([H:9])[H:11]"
C        1.19438315       0.98219947       0.48612353
C        0.46572522      -1.00173643      -0.29287199
O       -0.07974399      -1.46632556       0.85106645
C       -1.14179315      -0.51484612       0.76312947
C       -0.88941495      -0.53991262      -0.77023112
O       -1.06570007       0.55048307      -1.59646729
H        0.96885818       1.99794025       0.82287597
H        1.97533268       0.60689543       1.14802431
H        1.65117040       1.16904543      -0.48969343
H        1.31911523      -1.49650324      -0.73612349
H       -0.23220199       0.66586309       0.99119280
H       -2.06495244      -0.88808002       1.20477908
H       -1.43390263      -1.38371381      -1.20260361
H       -0.66687564       1.31869105      -1.17920069
14
Frame=10 idx=003575 GeodesicLength=0.642899851365958 rxn_smarts="[C:1]([C@@:2]1([H:10])[O:3][C:4]([H:11])([H:12])[C@:5]1([O:6][H:14])[H:13])([H:7])([H:8])[H:9]>>[C-:2]1([H:10])[O+:3]=[C:4]([H:12])[C:5]1([O:6][H:14])[H:13].[C:1]([H:7])([H:8])([H:9])[H:11]"
C        1.20394057       0.97527238       0.48292312
C        0.46961898      -0.99139539      -0.28678545
O       -0.08328191      -1.46403877       0.85488500
C       -1.14883500      -0.51509314       0.76196637
C       -0.88922321      -0.54238210      -0.77074847
O       -1.06663296       0.54834021      -1.59785937
H        0.98021624       1.99188586       0.81748149
H        1.99088978       0.60565565       1.14109645
H        1.65813285       1.16842411      -0.49322754
H        1.31912428      -1.49241639      -0.73066364
H       -0.24800554       0.67995846       1.01006430
H       -2.07321005      -0.89836116       1.19283285
H       -1.42783119      -1.38749329      -1.20751521
H       -0.68490284       1.32164357      -1.17444992
14
Frame=11 idx=003575 GeodesicLength=0.707309798809985 rxn_smarts="[C:1]([C@@:2]1([H:10])[O:3][C:4]([H:11])([H:12])[C@:5]1([O:6][H:14])[H:13])([H:7])([H:8])[H:9]>>[C-:2]1([H:10])[O+:3]=[C:4]([H:12])[C:5]1([O:6][H:14])[H:13].[C:1]([H:7])([H:8])([H:9])[H:11]"
C        1.21365671       0.96830578       0.47969654
C        0.47342725      -0.98112172      -0.28074645
O       -0.08678894      -1.46168398       0.85870539
C       -1.15578097      -0.51523771       0.76076628
C       -0.88896001      -0.54484752      -0.77128404
O       -1.06741914       0.54626268      -1.59921804
H        0.99103667       1.98555125       0.81229342
H        2.00662774       0.60438522       1.13399340
H        1.66516632       1.16786778      -0.49675610
H        1.31904018      -1.48836222      -0.72520783
H       -0.26410744       0.69412400       1.02908435
H       -2.08117137      -0.90843471       1.18089012
H       -1.42179526      -1.39117780      -1.21237737
H       -0.70293173       1.32436896      -1.16983965
14
Frame=12 idx=003575 GeodesicLength=0.7717660442839346 rxn_smarts="[C:1]([C@@:2]1([H:10])[O:3][C:4]([H:11])([H:12])[C@:5]1([O:6][H:14])[H:13])([H:7])([H:8])[H:9]>>[C-:2]1([H:10])[O+:3]=[C:4]([H:12])[C:5]1([O:6][H:14])[H:13].[C:1]([H:7])([H:8])([H:9])[H:11]"
C        1.22354961       0.96129912       0.47643322
C        0.47714931      -0.97089834      -0.27473459
O       -0.09026572      -1.45923495       0.86254759
C       -1.16263798      -0.51527954       0.75952458
C       -0.88862260      -0.54730607      -0.77183480
O       -1.06805402       0.54423570      -1.60055639
H        1.00138724       1.97891952       0.80730951
H        2.02257038       0.60306815       1.12668498
H        1.67225727       1.16737009      -0.50030092
H        1.31886172      -1.48433385      -0.71972286
H       -0.28056209       0.70838075       1.04826956
H       -2.08885067      -0.91834033       1.16890281
H       -1.41576862      -1.39475952      -1.21719519
H       -0.72101385       1.32687928      -1.16532751
14
Frame=13 idx=003575 GeodesicLength=0.8362655004433336 rxn_smarts="[C:1]([C@@:2]1([H:10])[O:3][C:4]([H:11])([H:12])[C@:5]1([O:6][H:14])[H:13])([H:7])([H:8])[H:9]>>[C-:2]1([H:10])[O+:3]=[C:4]([H:12])[C:5]1([O:6][H:14])[H:13].[C:1]([H:7])([H:8])([H:9])[H:11]"
C        1.23364670       0.95423714       0.47312363
C        0.48079826      -0.96072257      -0.26876193
O       -0.09370295      -1.45669226       0.86640807
C       -1.16940842      -0.51522166       0.75824305
C       -0.88820795      -0.54975464      -0.77240132
O       -1.06855392       0.54227487      -1.60186374
H        1.01122532       1.97197385       0.80256550
H        2.03873056       0.60169782       1.11917469
H        1.67941062       1.16695708      -0.50386943
H        1.31859029      -1.48034144      -0.71422926
H       -0.29742231       0.72273312       1.06763150
H       -2.09624232      -0.92805264       1.15691422
H       -1.40975780      -1.39824798      -1.22196538
H       -0.73910609       1.32915931      -1.16096959
14
Frame=14 idx=003575 GeodesicLength=0.900800479318176 rxn_smarts="[C:1]([C@@:2]1([H:10])[O:3][C:4]([H:11])([H:12])[C@:5]1([O:6][H:14])[H:13])([H:7])([H:8])[H:9]>>[C-:2]1([H:10])[O+:3]=[C:4]([H:12])[C:5]1([O:6][H:14])[H:13].[C:1]([H:7])([H:8])([H:9])[H:11]"
C        1.24397041       0.94711409       0.46976124
C        0.48437922      -0.95058336      -0.26283195
O       -0.09709262      -1.45404563       0.87028881
C       -1.17609284      -0.51506875       0.75692104
C       -0.88771689      -0.55219137      -0.77298193
O       -1.06893136       0.54037640      -1.60314059
H        1.02056041       1.96469895       0.79807278
H        2.05511667       0.60026303       1.11146621
H        1.68662554       1.16663947      -0.50746838
H        1.31822302      -1.47638205      -0.70873551
H       -0.31474888       0.73719547       1.08717823
H       -2.10334274      -0.93757803       1.14494198
H       -1.40376243      -1.40164343      -1.22668628
H       -0.75718752       1.33120520      -1.15678565
14
Frame=15 idx=003575 GeodesicLength=0.9653657068119704 rxn_smarts="[C:1]([C@@:2]1([H:10])[O:3][C:4]([H:11])([H:12])[C@:5]1([O:6][H:14])[H:13])([H:7])([H:8])[H:9]>>[C-:2]1([H:10])[O+:3]=[C:4]([H:12])[C:5]1([O:6][H:14])[H:13].[C:1]([H:7])([H:8])([H:9])[H:11]"
C        1.25454382       0.93992406       0.46633807
C        0.48789863      -0.94047062      -0.25694827
O       -0.10042600      -1.45128511       0.87419234
C       -1.18269177      -0.51482428       0.75555849
C       -0.88714970      -0.55461431      -0.77357500
O       -1.06919844       0.53853734      -1.60438887
H        1.02940187       1.95707469       0.79384635
H        2.07173918       0.59875327       1.10356072
H        1.69390119       1.16643046      -0.51110576
H        1.31775847      -1.47245387      -0.70324994
H       -0.33260673       0.75178157       1.10691806
H       -2.11014987      -0.94692103       1.13300344
H       -1.39778231      -1.40494807      -1.23135406
H       -0.77523831       1.33301589      -1.15279557
14
Frame=16 idx=003575 GeodesicLength=1.0299565648480002 rxn_smarts="[C:1]([C@@:2]1([H:10])[O:3][C:4]([H:11])([H:12])[C@:5]1([O:6][H:14])[H:13])([H:7])([H:8])[H:9]>>[C-:2]1([H:10])[O+:3]=[C:4]([H:12])[C:5]1([O:6][H:14])[H:13].[C:1]([H:7])([H:8])([H:9])[H:11]"
C        1.26539083       0.93266031       0.46284527
C        0.49136327      -0.93037438      -0.25111461
O       -0.10369409      -1.44840009       0.87812158
C       -1.18920499      -0.51449055       0.75415561
C       -0.88650619      -0.55702152      -0.77417883
O       -1.06936672       0.53675444      -1.60561094
H        1.03775878       1.94907787       0.78990317
H        2.08861115       0.59715767       1.09545717
H        1.70123592       1.16634487      -0.51478958
H        1.31719533      -1.46855543      -0.69778066
H       -0.35106523       0.76650525       1.12685892
H       -2.11666153      -0.95608514       1.12111563
H       -1.39181719      -1.40816459      -1.23596424
H       -0.79323934       1.33459128      -1.14901849
