14
Frame=0 idx=006031 GeodesicLength=0.0 rxn_smarts="[C:1]1([H:7])([H:8])[C:2]([H:9])([H:10])[C:3]([H:11])=[C:4]([H:12])[C:5]([H:13])([H:14])[O:6]1>>[C@:1]12([H:8])[C:2]([H:9])([H:10])[C:3]([H:11])=[C:4]([H:12])[C@@:5]1([H:13])[O:6]2.[H:7][H:14]"
C       -0.88778930      -0.65032533      -0.01302603
C       -1.46776305       0.63968047       0.31848720
C       -0.10009207       1.39976217       0.16576598
C        1.06923371       0.76675503       0.08492410
C        1.16519506      -0.74210078       0.15897341
O       -0.04905648      -1.10254589       0.87429992
H        0.11982418      -2.40946245      -1.48043587
H       -0.73368644      -0.99826671      -1.03814990
H       -2.19330670       1.00556549      -0.40423338
H       -1.83009781       0.74867308       1.34171882
H       -0.17441310       2.47888369       0.12633715
H        1.98722376       1.33334421      -0.01605923
H        2.01855846      -1.12777343       0.71093661
H        1.07616980      -1.34218955      -0.82953883
14
Frame=1 idx=006031 GeodesicLength=0.11583677455635602 rxn_smarts="[C:1]1([H:7])([H:8])[C:2]([H:9])([H:10])[C:3]([H:11])=[C:4]([H:12])[C:5]([H:13])([H:14])[O:6]1>>[C@:1]12([H:8])[C:2]([H:9])([H:10])[C:3]([H:11])=[C:4]([H:12])[C@@:5]1([H:13])[O:6]2.[H:7][H:14]"
C       -0.87600330      -0.65902316      -0.02867075
C       -1.45759256       0.63413626       0.30816615
C       -0.09967398       1.40722828       0.18074254
C        1.07087648       0.77869915       0.08826187
C        1.16277750      -0.73007873       0.14799647
O       -0.03881090      -1.10865243       0.87080888
H        0.07270175      -2.43017405      -1.40554374
H       -0.73413600      -0.97625532      -1.06540055
H       -2.17923993       1.00194678      -0.41812252
H       -1.83862170       0.72955650       1.32603764
H       -0.17754766       2.48669359       0.15936446
H        1.98882693       1.34700211      -0.00321686
H        2.02320927      -1.11474461       0.69037939
H        1.08323411      -1.36633436      -0.85080298
14
Frame=2 idx=006031 GeodesicLength=0.23156795803753832 rxn_smarts="[C:1]1([H:7])([H:8])[C:2]([H:9])([H:10])[C:3]([H:11])=[C:4]([H:12])[C:5]([H:13])([H:14])[O:6]1>>[C@:1]12([H:8])[C:2]([H:9])([H:10])[C:3]([H:11])=[C:4]([H:12])[C@@:5]1([H:13])[O:6]2.[H:7][H:14]"
C       -0.86443928      -0.66811762      -0.04267030
C       -1.44734283       0.62873326       0.29814416
C       -0.09946290       1.41414759       0.19459395
C        1.07231480       0.79011329       0.09163518
C        1.15993527      -0.71849728       0.13808956
O       -0.02847086      -1.11414638       0.86926527
H        0.02863164      -2.44267380      -1.33706228
H       -0.73564450      -0.95703802      -1.08939149
H       -2.16518744       0.99775044      -0.43194747
H       -1.84660288       0.71191321       1.31018137
H       -0.18090664       2.49363096       0.19024803
H        1.99022976       1.35976289       0.00838834
H        2.02763717      -1.10200747       0.67038115
H        1.08930870      -1.39357109      -0.86985546
14
Frame=3 idx=006031 GeodesicLength=0.34720042655845657 rxn_smarts="[C:1]1([H:7])([H:8])[C:2]([H:9])([H:10])[C:3]([H:11])=[C:4]([H:12])[C:5]([H:13])([H:14])[O:6]1>>[C@:1]12([H:8])[C:2]([H:9])([H:10])[C:3]([H:11])=[C:4]([H:12])[C@@:5]1([H:13])[O:6]2.[H:7][H:14]"
C       -0.85310891      -0.67742632      -0.05532499
C       -1.43703702       0.62356535       0.28843269
C       -0.09945992       1.42072318       0.20749327
C        1.07355206       0.80117768       0.09508553
C        1.15668509      -0.70718806       0.12901316
O       -0.01806011      -1.11909437       0.86922576
H       -0.01242668      -2.44909525      -1.27415973
H       -0.73816866      -0.94018376      -1.11066423
H       -2.15116541       0.99323011      -0.44562413
H       -1.85407088       0.69556350       1.29424240
H       -0.18447591       2.49994747       0.21951092
H        1.99145630       1.37188436       0.01917234
H        2.03182716      -1.08953100       0.65061498
H        1.09445289      -1.42357288      -0.88701797
14
Frame=4 idx=006031 GeodesicLength=0.4628271965933935 rxn_smarts="[C:1]1([H:7])([H:8])[C:2]([H:9])([H:10])[C:3]([H:11])=[C:4]([H:12])[C:5]([H:13])([H:14])[O:6]1>>[C@:1]12([H:8])[C:2]([H:9])([H:10])[C:3]([H:11])=[C:4]([H:12])[C@@:5]1([H:13])[O:6]2.[H:7][H:14]"
C       -0.84201570      -0.68681600      -0.06686951
C       -1.42669148       0.61869349       0.27903277
C       -0.09966041       1.42708935       0.21959888
C        1.07459538       0.81202592       0.09867492
C        1.15304287      -0.69602162       0.12061201
O       -0.00759467      -1.12356372       0.87034802
H       -0.05055858      -2.45091242      -1.21611669
H       -0.74164695      -0.92536593      -1.12963791
H       -2.13717345       0.98857463      -0.45909204
H       -1.86105608       0.68035719       1.27827481
H       -0.18825624       2.50580201       0.24746684
H        1.99252444       1.38354931       0.02944346
H        2.03577418      -1.07731018       0.63082346
H        1.09871669      -1.45610202      -0.90255902
14
Frame=5 idx=006031 GeodesicLength=0.5786096813906563 rxn_smarts="[C:1]1([H:7])([H:8])[C:2]([H:9])([H:10])[C:3]([H:11])=[C:4]([H:12])[C:5]([H:13])([H:14])[O:6]1>>[C@:1]12([H:8])[C:2]([H:9])([H:10])[C:3]([H:11])=[C:4]([H:12])[C@@:5]1([H:13])[O:6]2.[H:7][H:14]"
C       -0.83109400      -0.69620804      -0.07751836
C       -1.41630450       0.61411302       0.26988638
C       -0.10005472       1.43335693       0.23104543
C        1.07547453       0.82278675       0.10250870
C        1.14908182      -0.68488682       0.11274240
O        0.00297791      -1.12761576       0.87234782
H       -0.08618585      -2.44897763      -1.16221614
H       -0.74594432      -0.91238888      -1.14661278
H       -2.12318863       0.98384881      -0.47240900
H       -1.86761622       0.66610434       1.26225715
H       -0.19227323       2.51131858       0.27439670
H        1.99345314       1.39494860       0.03946894
H        2.03952948      -1.06533486       0.61072184
H        1.10214459      -1.49106504      -0.91661908
14
Frame=6 idx=006031 GeodesicLength=0.6944319336793765 rxn_smarts="[C:1]1([H:7])([H:8])[C:2]([H:9])([H:10])[C:3]([H:11])=[C:4]([H:12])[C:5]([H:13])([H:14])[O:6]1>>[C@:1]12([H:8])[C:2]([H:9])([H:10])[C:3]([H:11])=[C:4]([H:12])[C@@:5]1([H:13])[O:6]2.[H:7][H:14]"
C       -0.82037191      -0.70548773      -0.08744347
C       -1.40589471       0.60989759       0.26100350
C       -0.10064417       1.43962204       0.24194534
C        1.07618458       0.83354121       0.10658665
C        1.14478816      -0.67368772       0.10530732
O        0.01362218      -1.13128331       0.87498024
H       -0.11919913      -2.44450413      -1.11190388
H       -0.75104030      -0.90094306      -1.16193665
H       -2.10921201       0.97923362      -0.48551692
H       -1.87377025       0.65273427       1.24622897
H       -0.19651225       2.51660186       0.30057757
H        1.99425137       1.40617527       0.04943232
H        2.04306165      -1.05358875       0.59013494
H        1.10473680      -1.52831117      -0.92939594
14
Frame=7 idx=006031 GeodesicLength=0.8103107847003419 rxn_smarts="[C:1]1([H:7])([H:8])[C:2]([H:9])([H:10])[C:3]([H:11])=[C:4]([H:12])[C:5]([H:13])([H:14])[O:6]1>>[C@:1]12([H:8])[C:2]([H:9])([H:10])[C:3]([H:11])=[C:4]([H:12])[C@@:5]1([H:13])[O:6]2.[H:7][H:14]"
C       -0.80982273      -0.71458768      -0.09679108
C       -1.39546772       0.60606278       0.25235091
C       -0.10142578       1.44596044       0.25239194
C        1.07674028       0.84436686       0.11094983
C        1.14019017      -0.66234125       0.09823590
O        0.02436016      -1.13459829       0.87805497
H       -0.14974828      -2.43817545      -1.06467311
H       -0.75685800      -0.89083910      -1.17583986
H       -2.09522941       0.97480217      -0.49844022
H       -1.87955408       0.64014658       1.23017765
H       -0.20098511       2.52172881       0.32622008
H        1.99493362       1.41733094       0.05949944
H        2.04638788      -1.04205946       0.56887923
H        1.10647900      -1.56779734      -0.94101568
14
Frame=8 idx=006031 GeodesicLength=0.9262881566372385 rxn_smarts="[C:1]1([H:7])([H:8])[C:2]([H:9])([H:10])[C:3]([H:11])=[C:4]([H:12])[C:5]([H:13])([H:14])[O:6]1>>[C@:1]12([H:8])[C:2]([H:9])([H:10])[C:3]([H:11])=[C:4]([H:12])[C@@:5]1([H:13])[O:6]2.[H:7][H:14]"
C       -0.79941871      -0.72346100      -0.10566734
C       -1.38502469       0.60261551       0.24390701
C       -0.10240082       1.45241490       0.26246625
C        1.07715133       0.85532582       0.11565598
C        1.13531326      -0.65077167       0.09149394
O        0.03521537      -1.13759297       0.88143477
H       -0.17796486      -2.43039917      -1.02014972
H       -0.76332142      -0.88192974      -1.18850645
H       -2.08122603       0.97060457      -0.51118766
H       -1.88499338       0.62825507       1.21409276
H       -0.20571478       2.52674045       0.35141834
H        1.99550799       1.42849197       0.06980198
H        2.04951733      -1.03074339       0.54678061
H        1.10735942      -1.60955034      -0.95154045
14
Frame=9 idx=006031 GeodesicLength=1.042518238017012 rxn_smarts="[C:1]1([H:7])([H:8])[C:2]([H:9])([H:10])[C:3]([H:11])=[C:4]([H:12])[C:5]([H:13])([H:14])[O:6]1>>[C@:1]12([H:8])[C:2]([H:9])([H:10])[C:3]([H:11])=[C:4]([H:12])[C@@:5]1([H:13])[O:6]2.[H:7][H:14]"
C       -0.78903511      -0.73207900      -0.11420191
C       -1.37453762       0.59951928       0.23559781
C       -0.10357004       1.45904608       0.27224949
C        1.07744911       0.86652444       0.12083022
C        1.13026199      -0.63887255       0.08503329
O        0.04629509      -1.14031143       0.88496851
H       -0.20439849      -2.42136012      -0.97791065
H       -0.77026222      -0.87416662      -1.20005929
H       -2.06715069       0.96661019      -0.52386568
H       -1.89012166       0.61691440       1.19789952
H       -0.21077616       2.53168752       0.37627243
H        1.99597289       1.43983152       0.08062985
H        2.05253413      -1.01958988       0.52343403
H        1.10733878      -1.65375383      -0.96087763
14
Frame=10 idx=006031 GeodesicLength=1.1588225001270007 rxn_smarts="[C:1]1([H:7])([H:8])[C:2]([H:9])([H:10])[C:3]([H:11])=[C:4]([H:12])[C:5]([H:13])([H:14])[O:6]1>>[C@:1]12([H:8])[C:2]([H:9])([H:10])[C:3]([H:11])=[C:4]([H:12])[C@@:5]1([H:13])[O:6]2.[H:7][H:14]"
C       -0.77871217      -0.74038451      -0.12246866
C       -1.36402645       0.59681827       0.22744549
C       -0.10494445       1.46588572       0.28179166
C        1.07762432       0.87798345       0.12644082
C        1.12500080      -0.62659649       0.07882919
O        0.05757161      -1.14273954       0.88856474
H       -0.22874241      -2.41161166      -0.93771785
H       -0.77768417      -0.86729577      -1.21069894
H       -2.05301825       0.96292398      -0.53641109
H       -1.89494073       0.60611727       1.18163147
H       -0.21616389       2.53660193       0.40088052
H        1.99634134       1.45133817       0.09201723
H        2.05538608      -1.00859849       0.49882890
H        1.10630837      -1.70044234      -0.96913348
14
Frame=11 idx=006031 GeodesicLength=1.2751646839335051 rxn_smarts="[C:1]1([H:7])([H:8])[C:2]([H:9])([H:10])[C:3]([H:11])=[C:4]([H:12])[C:5]([H:13])([H:14])[O:6]1>>[C@:1]12([H:8])[C:2]([H:9])([H:10])[C:3]([H:11])=[C:4]([H:12])[C@@:5]1([H:13])[O:6]2.[H:7][H:14]"
C       -0.76838939      -0.74835332      -0.13055882
C       -1.35347958       0.59449789       0.21942085
C       -0.10653084       1.47296946       0.29114053
C        1.07769477       0.88975789       0.13253253
C        1.11957288      -0.61386726       0.07284271
O        0.06911275      -1.14489111       0.89211924
H       -0.25119400      -2.40136728      -0.89926037
H       -0.78549772      -0.86120385      -1.22055520
H       -2.03881345       0.95954583      -0.54885276
H       -1.89945424       0.59577838       1.16526604
H       -0.22192131       2.54151961       0.42527308
H        1.99662264       1.46308489       0.10419261
H        2.05808258      -0.99773252       0.47273102
H        1.10419492      -1.74973860      -0.97629145
14
Frame=12 idx=006031 GeodesicLength=1.3916383082777142 rxn_smarts="[C:1]1([H:7])([H:8])[C:2]([H:9])([H:10])[C:3]([H:11])=[C:4]([H:12])[C:5]([H:13])([H:14])[O:6]1>>[C@:1]12([H:8])[C:2]([H:9])([H:10])[C:3]([H:11])=[C:4]([H:12])[C@@:5]1([H:13])[O:6]2.[H:7][H:14]"
C       -0.75798444      -0.75596491      -0.13856306
C       -1.34287956       0.59253671       0.21148590
C       -0.10834294       1.48033887       0.30034349
C        1.07767598       0.90192032       0.13916351
C        1.11403888      -0.60059799       0.06703959
O        0.08100140      -1.14676394       0.89554200
H       -0.27196159      -2.39075068      -0.86224812
H       -0.79358391      -0.85577111      -1.22975176
H       -2.02450993       0.95646346      -0.56123490
H       -1.90367163       0.58580386       1.14875983
H       -0.22811544       2.54646063       0.44952355
H        1.99682173       1.47515514       0.11735716
H        2.06065185      -0.98693413       0.44488669
H        1.10085960      -1.80189624      -0.98230389
14
Frame=13 idx=006031 GeodesicLength=1.508213322247081 rxn_smarts="[C:1]1([H:7])([H:8])[C:2]([H:9])([H:10])[C:3]([H:11])=[C:4]([H:12])[C:5]([H:13])([H:14])[O:6]1>>[C@:1]12([H:8])[C:2]([H:9])([H:10])[C:3]([H:11])=[C:4]([H:12])[C@@:5]1([H:13])[O:6]2.[H:7][H:14]"
C       -0.74743788      -0.76321090      -0.14653933
C       -1.33220933       0.59091356       0.20362403
C       -0.11039141       1.48800557       0.30941955
C        1.07757572       0.91451875       0.14637866
C        1.10843846      -0.58671955       0.06137657
O        0.09332052      -1.14836013       0.89876259
H       -0.29117197      -2.37976902      -0.82653465
H       -0.80186568      -0.85091781      -1.23836941
H       -2.01009533       0.95365852      -0.57356555
H       -1.90757398       0.57612466       1.13210005
H       -0.23479974       2.55143716       0.47361599
H        1.99694461       1.48759193       0.13172065
H        2.06307326      -0.97613249       0.41507932
H        1.09619275      -1.85714024      -0.98706847
14
Frame=14 idx=006031 GeodesicLength=1.624833165447628 rxn_smarts="[C:1]1([H:7])([H:8])[C:2]([H:9])([H:10])[C:3]([H:11])=[C:4]([H:12])[C:5]([H:13])([H:14])[O:6]1>>[C@:1]12([H:8])[C:2]([H:9])([H:10])[C:3]([H:11])=[C:4]([H:12])[C@@:5]1([H:13])[O:6]2.[H:7][H:14]"
C       -0.73666398      -0.77006575      -0.15456993
C       -1.32144609       0.58961694       0.19580527
C       -0.11269391       1.49600067       0.31839775
C        1.07740311       0.92762563       0.15423441
C        1.10282500      -0.57213212       0.05583322
O        0.10616690      -1.14967439       0.90169221
H       -0.30892665      -2.36848859      -0.79197929
H       -0.81023282      -0.84655030      -1.24650949
H       -1.99554353       0.95112593      -0.58587318
H       -1.91114475       0.56666281       1.11525350
H       -0.24204415       2.55646165       0.49760132
H        1.99698067       1.50047107       0.14752930
H        2.06533042      -0.96525298       0.38290470
H        1.08998976      -1.91580056      -0.99031980
14
Frame=15 idx=006031 GeodesicLength=1.7414111536877648 rxn_smarts="[C:1]1([H:7])([H:8])[C:2]([H:9])([H:10])[C:3]([H:11])=[C:4]([H:12])[C:5]([H:13])([H:14])[O:6]1>>[C@:1]12([H:8])[C:2]([H:9])([H:10])[C:3]([H:11])=[C:4]([H:12])[C@@:5]1([H:13])[O:6]2.[H:7][H:14]"
C       -0.72557933      -0.77651389      -0.16273188
C       -1.31056466       0.58862795       0.18800995
C       -0.11526539       1.50434223       0.32730402
C        1.07716382       0.94130280       0.16278000
C        1.09724738      -0.55674470       0.05036455
O        0.11964863      -1.15070271       0.90423972
H       -0.32529393      -2.35691081      -0.75851232
H       -0.81858631      -0.84257627      -1.25426270
H       -1.98083484       0.94885478      -0.59816620
H       -1.91435311       0.55733387       1.09820363
H       -0.24991483       2.56154684       0.52150132
H        1.99692553       1.51383850       0.16501688
H        2.06735902      -0.95419154       0.34799537
H        1.08204802      -1.97820706      -0.99174233
14
Frame=16 idx=006031 GeodesicLength=1.857817984180933 rxn_smarts="[C:1]1([H:7])([H:8])[C:2]([H:9])([H:10])[C:3]([H:11])=[C:4]([H:12])[C:5]([H:13])([H:14])[O:6]1>>[C@:1]12([H:8])[C:2]([H:9])([H:10])[C:3]([H:11])=[C:4]([H:12])[C@@:5]1([H:13])[O:6]2.[H:7][H:14]"
C       -0.71409021      -0.78253763      -0.17110586
C       -1.29953639       0.58792842       0.18020826
C       -0.11812385       1.51304958       0.33615641
C        1.07686349       0.95561477       0.17205812
C        1.09176515      -0.54046146       0.04492707
O        0.13388457      -1.15143176       0.90631376
H       -0.34030632      -2.34501664      -0.72609441
H       -0.82681584      -0.83891231      -1.26171643
H       -1.96594113       0.94683117      -0.61046961
H       -1.91717027       0.54805438       1.08091717
H       -0.25848285       2.56668730       0.54538629
H        1.99676743       1.52773413       0.18445269
H        2.06907886      -0.94283315       0.30984736
H        1.07210737      -2.04470681      -0.99088082
