14
Frame=0 idx=007016 GeodesicLength=0.0 rxn_smarts="[C:1]([C@@:2]1([H:11])[C:3]([H:12])=[C:4]([H:13])[N:5]([H:14])[C:6]1=[O:7])([H:8])([H:9])[H:10]>>[C:1]([C@@:2]1([H:11])[C:3]([H:12])=[C-:4][N:5]([H:14])[C+:6]1[O:7][H:13])([H:8])([H:9])[H:10]"
C       -1.81033838       0.18633668       0.16538142
C       -0.49369407       0.27499303      -0.57285006
C        0.54939882       1.15015853       0.08698669
C        1.71902678       0.44390183       0.10246928
N        1.67710354      -0.60663742      -0.99456072
C        0.52223877      -0.84118334      -0.27088288
O        0.65388780      -1.48273144       0.84652645
H       -2.34828669       1.13270339       0.09478102
H       -1.65222628      -0.04505158       1.21935017
H       -2.44009175      -0.59633243      -0.26106893
H       -0.62001352       0.40486386      -1.64747341
H        0.32100469       1.88303953       0.85166008
H        1.55116189      -0.59817164       1.13292849
H        2.37082845      -1.30588902      -0.75324754
14
Frame=1 idx=007016 GeodesicLength=0.10007958914856867 rxn_smarts="[C:1]([C@@:2]1([H:11])[C:3]([H:12])=[C:4]([H:13])[N:5]([H:14])[C:6]1=[O:7])([H:8])([H:9])[H:10]>>[C:1]([C@@:2]1([H:11])[C:3]([H:12])=[C-:4][N:5]([H:14])[C+:6]1[O:7][H:13])([H:8])([H:9])[H:10]"
C       -1.80651596       0.18570795       0.17023266
C       -0.49033943       0.27570161      -0.57060324
C        0.55201563       1.15611092       0.08321048
C        1.71994102       0.44980122       0.11783649
N        1.67952118      -0.59530181      -0.97970881
C        0.51558886      -0.85100640      -0.28241755
O        0.63353747      -1.51229277       0.82385135
H       -2.34913210       1.12869121       0.09190731
H       -1.64658346      -0.03546598       1.22615766
H       -2.43065883      -0.60600117      -0.24766390
H       -0.62403355       0.40627407      -1.64453219
H        0.32201828       1.91357381       0.82247547
H        1.54598398      -0.62089950       1.14700890
H        2.37865692      -1.29489316      -0.75775463
14
Frame=2 idx=007016 GeodesicLength=0.2000378019750333 rxn_smarts="[C:1]([C@@:2]1([H:11])[C:3]([H:12])=[C:4]([H:13])[N:5]([H:14])[C:6]1=[O:7])([H:8])([H:9])[H:10]>>[C:1]([C@@:2]1([H:11])[C:3]([H:12])=[C-:4][N:5]([H:14])[C+:6]1[O:7][H:13])([H:8])([H:9])[H:10]"
C       -1.80252199       0.18499074       0.17532169
C       -0.48692284       0.27636298      -0.56832219
C        0.55457101       1.16229254       0.07929750
C        1.72052491       0.45598136       0.13363454
N        1.68185675      -0.58427000      -0.96393739
C        0.50893155      -0.86079506      -0.29448915
O        0.61290684      -1.54191701       0.79999333
H       -2.34969346       1.12461367       0.08986936
H       -1.64048385      -0.02651705       1.23294968
H       -2.42126914      -0.61525844      -0.23422270
H       -0.62815778       0.40779645      -1.64147583
H        0.32316368       1.94419724       0.79163066
H        1.54046283      -0.64403563       1.16124139
H        2.38663148      -1.28344178      -0.76149089
14
Frame=3 idx=007016 GeodesicLength=0.2999092340189317 rxn_smarts="[C:1]([C@@:2]1([H:11])[C:3]([H:12])=[C:4]([H:13])[N:5]([H:14])[C:6]1=[O:7])([H:8])([H:9])[H:10]>>[C:1]([C@@:2]1([H:11])[C:3]([H:12])=[C-:4][N:5]([H:14])[C+:6]1[O:7][H:13])([H:8])([H:9])[H:10]"
C       -1.79834174       0.18418013       0.18065870
C       -0.48344030       0.27698177      -0.56601061
C        0.55706465       1.16872621       0.07522210
C        1.72075451       0.46248222       0.14985172
N        1.68408194      -0.57357042      -0.94720218
C        0.50227649      -0.87052565      -0.30712030
O        0.59198833      -1.57158241       0.77488800
H       -2.34995621       1.12048423       0.08869721
H       -1.63389293      -0.01823052       1.23974400
H       -2.41191620      -0.62411748      -0.22075925
H       -0.63239988       0.40943699      -1.63830196
H        0.32447203       1.97481310       0.75909063
H        1.53457488      -0.66754635       1.17564418
H        2.39473443      -1.27153181      -0.76440225
14
Frame=4 idx=007016 GeodesicLength=0.399749710126661 rxn_smarts="[C:1]([C@@:2]1([H:11])[C:3]([H:12])=[C:4]([H:13])[N:5]([H:14])[C:6]1=[O:7])([H:8])([H:9])[H:10]>>[C:1]([C@@:2]1([H:11])[C:3]([H:12])=[C-:4][N:5]([H:14])[C+:6]1[O:7][H:13])([H:8])([H:9])[H:10]"
C       -1.79396607       0.18327300       0.18624683
C       -0.47988822       0.27756193      -0.56367137
C        0.55949212       1.17543532       0.07096138
C        1.72061637       0.46934283       0.16646398
N        1.68616638      -0.56323275      -0.92947029
C        0.49563231      -0.88017277      -0.32032382
O        0.57076930      -1.60126383       0.74849672
H       -2.34991081       1.11631204       0.08840050
H       -1.62679335      -0.01061681       1.24655390
H       -2.40259553      -0.63259361      -0.20728885
H       -0.63677134       0.41119777      -1.63500578
H        0.32597675       2.00530286       0.72485598
H        1.52832750      -0.69138342       1.19024296
H        2.40294459      -1.25916257      -0.76646213
14
Frame=5 idx=007016 GeodesicLength=0.49956372219685374 rxn_smarts="[C:1]([C@@:2]1([H:11])[C:3]([H:12])=[C:4]([H:13])[N:5]([H:14])[C:6]1=[O:7])([H:8])([H:9])[H:10]>>[C:1]([C@@:2]1([H:11])[C:3]([H:12])=[C-:4][N:5]([H:14])[C+:6]1[O:7][H:13])([H:8])([H:9])[H:10]"
C       -1.78937130       0.18226060       0.19210339
C       -0.47626162       0.27810962      -0.56131334
C        0.56186074       1.18244267       0.06647246
C        1.72007884       0.47661379       0.18346330
N        1.68807291      -0.55329287      -0.91068035
C        0.48901394      -0.88970876      -0.33413128
O        0.54924666      -1.63093443       0.72071140
H       -2.34953642       1.11211155       0.08902964
H       -1.61912609      -0.00371562       1.25339914
H       -2.39329167      -0.64070414      -0.19382007
H       -0.64129175       0.41308705      -1.63159065
H        0.32771115       2.03556978       0.68888192
H        1.52165899      -0.71550437       1.20506405
H        2.41123561      -1.24633488      -0.76758962
14
Frame=6 idx=007016 GeodesicLength=0.5994136796434677 rxn_smarts="[C:1]([C@@:2]1([H:11])[C:3]([H:12])=[C:4]([H:13])[N:5]([H:14])[C:6]1=[O:7])([H:8])([H:9])[H:10]>>[C:1]([C@@:2]1([H:11])[C:3]([H:12])=[C-:4][N:5]([H:14])[C+:6]1[O:7][H:13])([H:8])([H:9])[H:10]"
C       -1.78454754       0.18114017       0.19822810
C       -0.47255661       0.27863128      -0.55894070
C        0.56416382       1.18977139       0.06173066
C        1.71913701       0.48433953       0.20080919
N        1.68976576      -0.54379061      -0.89079735
C        0.48242887      -0.89910415      -0.34855066
O        0.52740852      -1.66056124       0.69148672
H       -2.34882177       1.10788602       0.09058484
H       -1.61087693       0.00247078       1.26028705
H       -2.38399837      -0.64846480      -0.18036489
H       -0.64597320       0.41510247      -1.62804981
H        0.32970338       2.06547976       0.65119838
H        1.51458694      -0.73984689       1.22015029
H        2.41958010      -1.23305369      -0.76777182
14
Frame=7 idx=007016 GeodesicLength=0.6992533551057993 rxn_smarts="[C:1]([C@@:2]1([H:11])[C:3]([H:12])=[C:4]([H:13])[N:5]([H:14])[C:6]1=[O:7])([H:8])([H:9])[H:10]>>[C:1]([C@@:2]1([H:11])[C:3]([H:12])=[C-:4][N:5]([H:14])[C+:6]1[O:7][H:13])([H:8])([H:9])[H:10]"
C       -1.77946928       0.17990227       0.20463369
C       -0.46876773       0.27913529      -0.55656545
C        0.56641172       1.19743975       0.05669117
C        1.71776435       0.49257630       0.21847791
N        1.69119427      -0.53477464      -0.86975387
C        0.47589475      -0.90832629      -0.36361463
O        0.50526975      -1.69008739       0.66072717
H       -2.34774100       1.10364428       0.09310780
H       -1.60198875       0.00790852       1.26722918
H       -2.37469242      -0.65589706      -0.16692732
H       -0.65083529       0.41725531      -1.62438671
H        0.33197860       2.09491532       0.61178881
H        1.50704500      -0.76436788       1.23553664
H        2.42793602      -1.21932379      -0.76694437
14
Frame=8 idx=007016 GeodesicLength=0.7991296923072717 rxn_smarts="[C:1]([C@@:2]1([H:11])[C:3]([H:12])=[C:4]([H:13])[N:5]([H:14])[C:6]1=[O:7])([H:8])([H:9])[H:10]>>[C:1]([C@@:2]1([H:11])[C:3]([H:12])=[C-:4][N:5]([H:14])[C+:6]1[O:7][H:13])([H:8])([H:9])[H:10]"
C       -1.77411188       0.17853833       0.21132924
C       -0.46488878       0.27963036      -0.55420020
C        0.56860926       1.20546900       0.05130293
C        1.71594708       0.50138204       0.23643603
N        1.69231228      -0.52629657      -0.84748239
C        0.46942670      -0.91733939      -0.37934462
O        0.48281938      -1.71947295       0.62832940
H       -2.34627061       1.09939203       0.09663109
H       -1.59240827       0.01257122       1.27423502
H       -2.36535422      -0.66302124      -0.15351471
H       -0.65589806       0.41954522      -1.62060017
H        0.33456079       2.12375002       0.57066189
H        1.49899622      -0.78899627       1.25128752
H        2.43626011      -1.20515180      -0.76507103
14
Frame=9 idx=007016 GeodesicLength=0.8987928830432604 rxn_smarts="[C:1]([C@@:2]1([H:11])[C:3]([H:12])=[C:4]([H:13])[N:5]([H:14])[C:6]1=[O:7])([H:8])([H:9])[H:10]>>[C:1]([C@@:2]1([H:11])[C:3]([H:12])=[C-:4][N:5]([H:14])[C+:6]1[O:7][H:13])([H:8])([H:9])[H:10]"
C       -1.76845584       0.17706019       0.21828401
C       -0.46089056       0.28010356      -0.55185785
C        0.57079244       1.21384055       0.04552199
C        1.71372323       0.51074529       0.25458290
N        1.69306969      -0.51831852      -0.82392266
C        0.46305525      -0.92614181      -0.39572506
O        0.46012163      -1.74855860       0.59445093
H       -2.34437459       1.09511858       0.10105997
H       -1.58215069       0.01654444       1.28127507
H       -2.35595598      -0.66985177      -0.14011023
H       -0.66113901       0.42193532      -1.61669591
H        0.33733034       2.15185381       0.52802425
H        1.49045105      -0.81380298       1.26742367
H        2.44442305      -1.19052807      -0.76231107
14
Frame=10 idx=007016 GeodesicLength=0.9984856305726638 rxn_smarts="[C:1]([C@@:2]1([H:11])[C:3]([H:12])=[C:4]([H:13])[N:5]([H:14])[C:6]1=[O:7])([H:8])([H:9])[H:10]>>[C:1]([C@@:2]1([H:11])[C:3]([H:12])=[C-:4][N:5]([H:14])[C+:6]1[O:7][H:13])([H:8])([H:9])[H:10]"
C       -1.76246947       0.17543652       0.22553520
C       -0.45678643       0.28057148      -0.54955900
C        0.57295228       1.22259028       0.03927825
C        1.71104377       0.52079158       0.27291799
N        1.69338732      -0.51098058      -0.79897450
C        0.45679561      -0.93467337      -0.41281371
O        0.43711283      -1.77739702       0.55880431
H       -2.34203387       1.09084088       0.10652873
H       -1.57109833       0.01970856       1.28838491
H       -2.34647583      -0.67642439      -0.12673920
H       -0.66661068       0.42444946      -1.61268068
H        0.34045866       2.17910924       0.48376734
H        1.48128227      -0.83858599       1.28406211
H        2.45244186      -1.17543666      -0.75851175
14
Frame=11 idx=007016 GeodesicLength=1.098233164517173 rxn_smarts="[C:1]([C@@:2]1([H:11])[C:3]([H:12])=[C:4]([H:13])[N:5]([H:14])[C:6]1=[O:7])([H:8])([H:9])[H:10]>>[C:1]([C@@:2]1([H:11])[C:3]([H:12])=[C-:4][N:5]([H:14])[C+:6]1[O:7][H:13])([H:8])([H:9])[H:10]"
C       -1.75612497       0.17365683       0.23308138
C       -0.45256803       0.28103287      -0.54732742
C        0.57510593       1.23172360       0.03249318
C        1.70792391       0.53157991       0.29135997
N        1.69319726      -0.50434614      -0.77256017
C        0.45066851      -0.94290486      -0.43062174
O        0.41377316      -1.80593727       0.52132388
H       -2.33921508       1.08655545       0.11304811
H       -1.55919985       0.02205130       1.29555617
H       -2.33688542      -0.68276348      -0.11340316
H       -0.67232715       0.42706964      -1.60856508
H        0.34395574       2.20539700       0.43801361
H        1.47144125      -0.86324211       1.30130198
H        2.46025473      -1.15987275      -0.75370070
14
Frame=12 idx=007016 GeodesicLength=1.1980212617869401 rxn_smarts="[C:1]([C@@:2]1([H:11])[C:3]([H:12])=[C:4]([H:13])[N:5]([H:14])[C:6]1=[O:7])([H:8])([H:9])[H:10]>>[C:1]([C@@:2]1([H:11])[C:3]([H:12])=[C-:4][N:5]([H:14])[C+:6]1[O:7][H:13])([H:8])([H:9])[H:10]"
C       -1.74938373       0.17170927       0.24092489
C       -0.44822202       0.28148593      -0.54518913
C        0.57728289       1.24123487       0.02508213
C        1.70437148       0.54317620       0.30984058
N        1.69241776      -0.49848510      -0.74456538
C        0.44470557      -0.95080798      -0.44916412
O        0.39010088      -1.83412178       0.48192092
H       -2.33587577       1.08226239       0.12064159
H       -1.54638038       0.02355633       1.30278346
H       -2.32714555      -0.68889703      -0.10009880
H       -0.67830172       0.42977314      -1.60436112
H        0.34782552       2.23061152       0.39084970
H        1.46082879      -0.88769689       1.31925807
H        2.46777627      -1.14380087      -0.74792280
14
Frame=13 idx=007016 GeodesicLength=1.2978468028029118 rxn_smarts="[C:1]([C@@:2]1([H:11])[C:3]([H:12])=[C:4]([H:13])[N:5]([H:14])[C:6]1=[O:7])([H:8])([H:9])[H:10]>>[C:1]([C@@:2]1([H:11])[C:3]([H:12])=[C-:4][N:5]([H:14])[C+:6]1[O:7][H:13])([H:8])([H:9])[H:10]"
C       -1.74220788       0.16957860       0.24906791
C       -0.44373319       0.28192706      -0.54316784
C        0.57951816       1.25110841       0.01697137
C        1.70040568       0.55563757       0.32829463
N        1.69095531      -0.49347955      -0.71484805
C        0.43894477      -0.95835223      -0.46845345
O        0.36608522      -1.86190137       0.44050868
H       -2.33197358       1.07795699       0.12933280
H       -1.53257025       0.02420444       1.31006021
H       -2.31721554      -0.69485534      -0.08682391
H       -0.68454115       0.43254160      -1.60007857
H        0.35208137       2.25465994       0.34233490
H        1.44933457      -0.91187782       1.33807612
H        2.47491651      -1.12714829      -0.74127481
14
Frame=14 idx=007016 GeodesicLength=1.3976977060854545 rxn_smarts="[C:1]([C@@:2]1([H:11])[C:3]([H:12])=[C:4]([H:13])[N:5]([H:14])[C:6]1=[O:7])([H:8])([H:9])[H:10]>>[C:1]([C@@:2]1([H:11])[C:3]([H:12])=[C-:4][N:5]([H:14])[C+:6]1[O:7][H:13])([H:8])([H:9])[H:10]"
C       -1.73456054       0.16725258       0.25749961
C       -0.43908686       0.28234802      -0.54128858
C        0.58183809       1.26132551       0.00807719
C        1.69607706       0.56901060       0.34661705
N        1.68872399      -0.48941829      -0.68328033
C        0.43341820      -0.96551448      -0.48847613
O        0.34170300      -1.88921848       0.39703332
H       -2.32746110       1.07363039       0.13910760
H       -1.51771163       0.02399422       1.31736524
H       -2.30705545      -0.70066859      -0.07358108
H       -0.69104129       0.43533464      -1.59572760
H        0.35671604       2.27745051       0.29263348
H        1.43687735      -0.93568199       1.35792995
H        2.48156314      -1.10984463      -0.73390971
14
Frame=15 idx=007016 GeodesicLength=1.4975535420962978 rxn_smarts="[C:1]([C@@:2]1([H:11])[C:3]([H:12])=[C:4]([H:13])[N:5]([H:14])[C:6]1=[O:7])([H:8])([H:9])[H:10]>>[C:1]([C@@:2]1([H:11])[C:3]([H:12])=[C-:4][N:5]([H:14])[C+:6]1[O:7][H:13])([H:8])([H:9])[H:10]"
C       -1.72639290       0.16470795       0.26622711
C       -0.43426067       0.28274077      -0.53957476
C        0.58430042       1.27184333      -0.00166772
C        1.69141594       0.58335050       0.36474286
N        1.68558952      -0.48641781      -0.64963814
C        0.42818802      -0.97226286      -0.50923671
O        0.31695768      -1.91600962       0.35136250
H       -2.32228166       1.06927234       0.15000429
H       -1.50171079       0.02288898       1.32469300
H       -2.29660805      -0.70637652      -0.06036560
H       -0.69779819       0.43812834      -1.59131683
H        0.36176400       2.29891566       0.24174287
H        1.42326134      -0.95905394       1.37903152
H        2.48757532      -1.09172713      -0.72600439
14
Frame=16 idx=007016 GeodesicLength=1.597384286122559 rxn_smarts="[C:1]([C@@:2]1([H:11])[C:3]([H:12])=[C:4]([H:13])[N:5]([H:14])[C:6]1=[O:7])([H:8])([H:9])[H:10]>>[C:1]([C@@:2]1([H:11])[C:3]([H:12])=[C-:4][N:5]([H:14])[C+:6]1[O:7][H:13])([H:8])([H:9])[H:10]"
C       -1.71765849       0.16192378       0.27524564
C       -0.42922873       0.28309083      -0.53804917
C        0.58696402       1.28261698      -0.01233530
C        1.68648191       0.59868808       0.38259042
N        1.68141349      -0.48460848      -0.61368194
C        0.42332171      -0.97857121      -0.53071252
O        0.29185058      -1.94220765       0.30340589
H       -2.31637692       1.06486634       0.16202263
H       -1.48449315       0.02087789       1.33202872
H       -2.28581751      -0.71202183      -0.04717190
H       -0.70479030       0.44087529      -1.58685726
H        0.36726040       2.31898587       0.18971921
H        1.40829557      -0.98194515       1.40163343
H        2.49277742      -1.07257074      -0.71783785
