11
Frame=0 idx=004040 GeodesicLength=0.0 rxn_smarts="[O:1]([c:2]1[c:3]([H:8])[n:4]([H:9])[c:5]([H:10])[c:6]1[H:11])[H:7]>>[O:1]([C:2]1=[C-:6][C:5]([H:10])([H:11])[N:4]([H:9])[C+:3]1[H:8])[H:7]"
O        2.32071904      -0.21081858      -0.27433207
C        0.97909054      -0.03855765      -0.15502045
C        0.05660948      -0.98197065      -0.51534449
N       -1.18675485      -0.49257459      -0.24843916
C       -1.03081001       0.76728273       0.31378071
C        0.35845918       1.16199548       0.30706461
H        2.72167780       0.61378541       0.01499775
H        0.19512318      -1.97828307      -0.90869061
H       -2.04261100      -1.01044275      -0.32760396
H       -1.88475346       1.42565546       0.39811818
H       -0.48674992       0.74392816       1.39546954
11
Frame=1 idx=004040 GeodesicLength=0.04702890104077872 rxn_smarts="[O:1]([c:2]1[c:3]([H:8])[n:4]([H:9])[c:5]([H:10])[c:6]1[H:11])[H:7]>>[O:1]([C:2]1=[C-:6][C:5]([H:10])([H:11])[N:4]([H:9])[C+:3]1[H:8])[H:7]"
O        2.31988023      -0.21074639      -0.27721837
C        0.97773627      -0.03511310      -0.16508692
C        0.05521044      -0.98157809      -0.52118299
N       -1.18661443      -0.49994363      -0.23871827
C       -1.03300161       0.76387098       0.31826740
C        0.35435830       1.15937903       0.30257967
H        2.72276043       0.60508199       0.03325378
H        0.19479234      -1.97266849      -0.92726786
H       -2.04145627      -1.01951565      -0.31732329
H       -1.88599697       1.42570301       0.38348835
H       -0.47766873       0.76553034       1.40920850
11
Frame=2 idx=004040 GeodesicLength=0.09406177206244176 rxn_smarts="[O:1]([c:2]1[c:3]([H:8])[n:4]([H:9])[c:5]([H:10])[c:6]1[H:11])[H:7]>>[O:1]([C:2]1=[C-:6][C:5]([H:10])([H:11])[N:4]([H:9])[C+:3]1[H:8])[H:7]"
O        2.31895446      -0.21059141      -0.28011039
C        0.97632234      -0.03158473      -0.17526627
C        0.05380049      -0.98113619      -0.52714265
N       -1.18623626      -0.50758631      -0.22855569
C       -1.03519513       0.76035585       0.32284639
C        0.35016302       1.15682224       0.29788762
H        2.72344042       0.59557267       0.05245568
H        0.19419141      -1.96641592      -0.94697709
H       -2.03999541      -1.02901960      -0.30629222
H       -1.88723983       1.42513495       0.36863037
H       -0.46820552       0.78844845       1.42252425
11
Frame=3 idx=004040 GeodesicLength=0.1410948862189065 rxn_smarts="[O:1]([c:2]1[c:3]([H:8])[n:4]([H:9])[c:5]([H:10])[c:6]1[H:11])[H:7]>>[O:1]([C:2]1=[C-:6][C:5]([H:10])([H:11])[N:4]([H:9])[C+:3]1[H:8])[H:7]"
O        2.31797684      -0.21055467      -0.28254185
C        0.97488822      -0.02808793      -0.18522202
C        0.05238393      -0.98055356      -0.53336608
N       -1.18560435      -0.51535757      -0.21823429
C       -1.03737359       0.75672695       0.32758365
C        0.34593738       1.15416415       0.29347307
H        2.72371882       0.58570053       0.07142340
H        0.19333828      -1.95971182      -0.96722063
H       -2.03824649      -1.03871054      -0.29507199
H       -1.88841361       1.42398549       0.35362055
H       -0.45860544       0.81239897       1.43555620
11
Frame=4 idx=004040 GeodesicLength=0.18812301579437324 rxn_smarts="[O:1]([c:2]1[c:3]([H:8])[n:4]([H:9])[c:5]([H:10])[c:6]1[H:11])[H:7]>>[O:1]([C:2]1=[C-:6][C:5]([H:10])([H:11])[N:4]([H:9])[C+:3]1[H:8])[H:7]"
O        2.31692671      -0.21047721      -0.28490306
C        0.97342623      -0.02454284      -0.19506339
C        0.05091759      -0.97961022      -0.54027723
N       -1.18473711      -0.52309567      -0.20808830
C       -1.03953224       0.75296161       0.33257330
C        0.34170190       1.15135036       0.28958555
H        2.72361482       0.57552678       0.09003737
H        0.19233816      -1.95307792      -0.98672475
H       -2.03627042      -1.04830926      -0.28432444
H       -1.88949137       1.42223635       0.33879983
H       -0.44889429       0.83703803       1.44838513
11
Frame=5 idx=004040 GeodesicLength=0.2351449831248456 rxn_smarts="[O:1]([c:2]1[c:3]([H:8])[n:4]([H:9])[c:5]([H:10])[c:6]1[H:11])[H:7]>>[O:1]([C:2]1=[C-:6][C:5]([H:10])([H:11])[N:4]([H:9])[C+:3]1[H:8])[H:7]"
O        2.31582337      -0.21061080      -0.28672814
C        0.97196554      -0.02107708      -0.20446316
C        0.04938467      -0.97828926      -0.54785911
N       -1.18365677      -0.53073016      -0.19828232
C       -1.04167164       0.74905583       0.33784012
C        0.33750793       1.14825423       0.28655882
H        2.72321446       0.56549610       0.10733941
H        0.19124350      -1.94661136      -1.00533307
H       -2.03412011      -1.05767547      -0.27437579
H       -1.89040669       1.41996537       0.32416833
H       -0.43928426       0.86222260       1.46113491
11
Frame=6 idx=004040 GeodesicLength=0.2821678677444611 rxn_smarts="[O:1]([c:2]1[c:3]([H:8])[n:4]([H:9])[c:5]([H:10])[c:6]1[H:11])[H:7]>>[O:1]([C:2]1=[C-:6][C:5]([H:10])([H:11])[N:4]([H:9])[C+:3]1[H:8])[H:7]"
O        2.31463353      -0.21070945      -0.28857005
C        0.97047015      -0.01755097      -0.21378363
C        0.04777141      -0.97664907      -0.55600672
N       -1.18233978      -0.53840883      -0.18855818
C       -1.04380278       0.74502631       0.34327857
C        0.33329028       1.14505762       0.28387071
H        2.72247028       0.55494804       0.12479098
H        0.19000178      -1.94000788      -1.02383751
H       -2.03168422      -1.06718693      -0.26438021
H       -1.89125521       1.41708143       0.30968874
H       -0.42955544       0.88839974       1.47350730
11
Frame=7 idx=004040 GeodesicLength=0.3291800006093209 rxn_smarts="[O:1]([c:2]1[c:3]([H:8])[n:4]([H:9])[c:5]([H:10])[c:6]1[H:11])[H:7]>>[O:1]([C:2]1=[C-:6][C:5]([H:10])([H:11])[N:4]([H:9])[C+:3]1[H:8])[H:7]"
O        2.31336885      -0.21096509      -0.29010043
C        0.96896458      -0.01406223      -0.22278402
C        0.04607884      -0.97469174      -0.56464749
N       -1.18080410      -0.54607809      -0.17905381
C       -1.04592839       0.74086287       0.34890324
C        0.32908776       1.14165645       0.28177324
H        2.72145400       0.54421046       0.14169198
H        0.18863722      -1.93331183      -1.04214893
H       -2.02899401      -1.07674437      -0.25457631
H       -1.89198642       1.41364177       0.29537534
H       -0.41987832       0.91548182       1.48556718
11
Frame=8 idx=004040 GeodesicLength=0.3761799757160975 rxn_smarts="[O:1]([c:2]1[c:3]([H:8])[n:4]([H:9])[c:5]([H:10])[c:6]1[H:11])[H:7]>>[O:1]([C:2]1=[C-:6][C:5]([H:10])([H:11])[N:4]([H:9])[C+:3]1[H:8])[H:7]"
O        2.31201238      -0.21124997      -0.29163336
C        0.96743099      -0.01054185      -0.23152200
C        0.04423575      -0.97220432      -0.57417995
N       -1.17912625      -0.55350131      -0.17027762
C       -1.04805324       0.73655207       0.35480922
C        0.32493557       1.13795678       0.28063173
H        2.72022765       0.53348549       0.15761896
H        0.18739109      -1.92720383      -1.05879513
H       -2.02617351      -1.08600551      -0.24576141
H       -1.89254604       1.40973584       0.28161055
H       -0.41033440       0.94297661       1.49749901
11
Frame=9 idx=004040 GeodesicLength=0.4231659063975079 rxn_smarts="[O:1]([c:2]1[c:3]([H:8])[n:4]([H:9])[c:5]([H:10])[c:6]1[H:11])[H:7]>>[O:1]([C:2]1=[C-:6][C:5]([H:10])([H:11])[N:4]([H:9])[C+:3]1[H:8])[H:7]"
O        2.31056897      -0.21165514      -0.29305373
C        0.96587839      -0.00704894      -0.23988187
C        0.04225138      -0.96927384      -0.58438216
N       -1.17733989      -0.56071013      -0.16221954
C       -1.05018903       0.73208183       0.36098061
C        0.32084607       1.13392119       0.28047487
H        2.71886853       0.52289426       0.17240201
H        0.18627965      -1.92160824      -1.07405947
H       -2.02326115      -1.09499063      -0.23792468
H       -1.89291500       1.40541211       0.26837007
H       -0.40098792       0.97097754       1.50929389
11
Frame=10 idx=004040 GeodesicLength=0.47014063700690306 rxn_smarts="[O:1]([c:2]1[c:3]([H:8])[n:4]([H:9])[c:5]([H:10])[c:6]1[H:11])[H:7]>>[O:1]([C:2]1=[C-:6][C:5]([H:10])([H:11])[N:4]([H:9])[C+:3]1[H:8])[H:7]"
O        2.30903315      -0.21215861      -0.29442737
C        0.96429972      -0.00357257      -0.24792599
C        0.04014529      -0.96599683      -0.59504575
N       -1.17544178      -0.56778924      -0.15474866
C       -1.05234166       0.72744650       0.36736232
C        0.31679875       1.12959176       0.28111061
H        2.71736612       0.51223086       0.18648034
H        0.18526119      -1.91627142      -1.08853026
H       -2.02020828      -1.10388620      -0.23068019
H       -1.89312498       1.40065386       0.25561028
H       -0.39178752       0.99975190       1.52079467
11
Frame=11 idx=004040 GeodesicLength=0.5171084880589752 rxn_smarts="[O:1]([c:2]1[c:3]([H:8])[n:4]([H:9])[c:5]([H:10])[c:6]1[H:11])[H:7]>>[O:1]([C:2]1=[C-:6][C:5]([H:10])([H:11])[N:4]([H:9])[C+:3]1[H:8])[H:7]"
O        2.30742832      -0.21290063      -0.29558698
C        0.96271556      -0.00026915      -0.25533987
C        0.03791699      -0.96247007      -0.60599851
N       -1.17353229      -0.57462486      -0.14813758
C       -1.05452515       0.72261627       0.37401407
C        0.31284991       1.12477918       0.28293123
H        2.71591139       0.50206761       0.19888707
H        0.18444278      -1.91142733      -1.10167904
H       -2.01719696      -1.11239973      -0.22470254
H       -1.89307165       1.39559863       0.24340292
H       -0.38293890       1.02903008       1.53220922
11
Frame=12 idx=004040 GeodesicLength=0.5640965595337386 rxn_smarts="[O:1]([c:2]1[c:3]([H:8])[n:4]([H:9])[c:5]([H:10])[c:6]1[H:11])[H:7]>>[O:1]([C:2]1=[C-:6][C:5]([H:10])([H:11])[N:4]([H:9])[C+:3]1[H:8])[H:7]"
O        2.30575526      -0.21375717      -0.29675479
C        0.96111219       0.00292716      -0.26230013
C        0.03558994      -0.95876884      -0.61711427
N       -1.17160572      -0.58132732      -0.14221992
C       -1.05674358       0.71758433       0.38089494
C        0.30896830       1.11956983       0.28567875
H        2.71445983       0.49205656       0.21034654
H        0.18377418      -1.90687349      -1.11404740
H       -2.01417842      -1.12075044      -0.21957630
H       -1.89280902       1.39021640       0.23175248
H       -0.37432295       1.05912298       1.54334010
11
Frame=13 idx=004040 GeodesicLength=0.610904354203174 rxn_smarts="[O:1]([c:2]1[c:3]([H:8])[n:4]([H:9])[c:5]([H:10])[c:6]1[H:11])[H:7]>>[O:1]([C:2]1=[C-:6][C:5]([H:10])([H:11])[N:4]([H:9])[C+:3]1[H:8])[H:7]"
O        2.30401354      -0.21471299      -0.29798191
C        0.95948507       0.00601101      -0.26877376
C        0.03318251      -0.95488144      -0.62830449
N       -1.16970438      -0.58786301      -0.13704937
C       -1.05900918       0.71229974       0.38802542
C        0.30515270       1.11388329       0.28942500
H        2.71306071       0.48226196       0.22074252
H        0.18331550      -1.90264750      -1.12544884
H       -2.01121073      -1.12881924      -0.21547283
H       -1.89232218       1.38452324       0.22074417
H       -0.36596356       1.08994495       1.55409411
11
Frame=14 idx=004040 GeodesicLength=0.6578308667134303 rxn_smarts="[O:1]([c:2]1[c:3]([H:8])[n:4]([H:9])[c:5]([H:10])[c:6]1[H:11])[H:7]>>[O:1]([C:2]1=[C-:6][C:5]([H:10])([H:11])[N:4]([H:9])[C+:3]1[H:8])[H:7]"
O        2.30221820      -0.21576652      -0.29920054
C        0.95783947       0.00900816      -0.27490436
C        0.03072100      -0.95096823      -0.63943853
N       -1.16775515      -0.59445816      -0.13224439
C       -1.06130945       0.70677938       0.39535897
C        0.30137740       1.10785701       0.29382987
H        2.71162479       0.47226229       0.23087578
H        0.18285811      -1.89823319      -1.13711580
H       -2.00814765      -1.13706411      -0.21161777
H       -1.89168101       1.37843227       0.21020642
H       -0.35774571       1.12215111       1.56425034
11
Frame=15 idx=004040 GeodesicLength=0.7046883748315557 rxn_smarts="[O:1]([c:2]1[c:3]([H:8])[n:4]([H:9])[c:5]([H:10])[c:6]1[H:11])[H:7]>>[O:1]([C:2]1=[C-:6][C:5]([H:10])([H:11])[N:4]([H:9])[C+:3]1[H:8])[H:7]"
O        2.30036278      -0.21708015      -0.30014428
C        0.95618216       0.01186761      -0.28063837
C        0.02822441      -0.94704332      -0.65041012
N       -1.16570578      -0.60117897      -0.12759630
C       -1.06364095       0.70097816       0.40288969
C        0.29762137       1.10143863       0.29880794
H        2.71014717       0.46200789       0.24086971
H        0.18227073      -1.89321607      -1.14971116
H       -2.00487531      -1.14561484      -0.20761040
H       -1.89091408       1.37184268       0.20004907
H       -0.34967250       1.15599838       1.57349423
11
Frame=16 idx=004040 GeodesicLength=0.7515749105139933 rxn_smarts="[O:1]([c:2]1[c:3]([H:8])[n:4]([H:9])[c:5]([H:10])[c:6]1[H:11])[H:7]>>[O:1]([C:2]1=[C-:6][C:5]([H:10])([H:11])[N:4]([H:9])[C+:3]1[H:8])[H:7]"
O        2.29845350      -0.21855342      -0.30097239
C        0.95451357       0.01466252      -0.28606683
C        0.02568996      -0.94307021      -0.66130630
N       -1.16356096      -0.60806322      -0.12311544
C       -1.06600104       0.69488196       0.41065790
C        0.29389543       1.09466264       0.30438386
H        2.70860147       0.45130754       0.25097810
H        0.18155330      -1.88764772      -1.16321829
H       -2.00138428      -1.15457059      -0.20342420
H       -1.89002838       1.36476403       0.19036278
H       -0.34173256       1.19162648       1.58172081
