10
Frame=0 idx=005551 GeodesicLength=0.0 rxn_smarts="[O:1]([c:2]1[n:3][n:4]([H:8])[c:5]([H:9])[c:6]1[H:10])[H:7]>>[O:1]([C:2]1=[C:6]=[C:5]([H:9])[N:4]([H:8])[N:3]1[H:10])[H:7]"
O        2.15454460       0.50944435       0.09957709
C        0.81925967       0.38607992       0.03071842
N        0.29908685      -0.92339008      -0.28753803
N       -0.96754389      -0.77703294       0.02525126
C       -1.26279135       0.50199241       0.44404207
C       -0.15524947       1.31986469       0.47932155
H        2.56397578      -0.34699333      -0.05862873
H       -1.61384022      -1.48828784      -0.27969612
H       -2.29269841       0.71388227       0.70063848
H        0.45525643       0.10444056      -1.15368597
10
Frame=1 idx=005551 GeodesicLength=0.09465927518841158 rxn_smarts="[O:1]([c:2]1[n:3][n:4]([H:8])[c:5]([H:9])[c:6]1[H:10])[H:7]>>[O:1]([C:2]1=[C:6]=[C:5]([H:9])[N:4]([H:8])[N:3]1[H:10])[H:7]"
O        2.15912310       0.49921491       0.11860199
C        0.82451444       0.37507105       0.05093873
N        0.29779358      -0.91346756      -0.30778444
N       -0.96863218      -0.77805926       0.02265635
C       -1.26083366       0.49565970       0.45541570
C       -0.15831226       1.32117012       0.44665571
H        2.56807214      -0.35385527      -0.05791005
H       -1.61291239      -1.50187953      -0.25398262
H       -2.29327954       0.71506817       0.69458051
H        0.44446677       0.14107768      -1.16917189
10
Frame=2 idx=005551 GeodesicLength=0.18933532969618147 rxn_smarts="[O:1]([c:2]1[n:3][n:4]([H:8])[c:5]([H:9])[c:6]1[H:10])[H:7]>>[O:1]([C:2]1=[C:6]=[C:5]([H:9])[N:4]([H:8])[N:3]1[H:10])[H:7]"
O        2.16300346       0.48904099       0.13664068
C        0.82897910       0.36426570       0.07006090
N        0.29641422      -0.90298596      -0.32728544
N       -0.96998723      -0.77870477       0.01941982
C       -1.25915232       0.49046965       0.46400144
C       -0.16042100       1.32026109       0.41727523
H        2.57153323      -0.36056915      -0.05661557
H       -1.61057955      -1.51584210      -0.22711805
H       -2.29339135       0.71655059       0.68853180
H        0.43360144       0.17751396      -1.18491082
10
Frame=3 idx=005551 GeodesicLength=0.28401829615874624 rxn_smarts="[O:1]([c:2]1[n:3][n:4]([H:8])[c:5]([H:9])[c:6]1[H:10])[H:7]>>[O:1]([C:2]1=[C:6]=[C:5]([H:9])[N:4]([H:8])[N:3]1[H:10])[H:7]"
O        2.16631673       0.47881412       0.15373554
C        0.83277985       0.35351923       0.08835382
N        0.29497596      -0.89198668      -0.34622499
N       -0.97158770      -0.77905603       0.01551182
C       -1.25783885       0.48623951       0.47003785
C       -0.16162262       1.31764602       0.39092568
H        2.57445011      -0.36733259      -0.05482659
H       -1.60669929      -1.53014509      -0.19897800
H       -2.29329180       0.71829724       0.68236870
H        0.42251761       0.21400427      -1.20090383
10
Frame=4 idx=005551 GeodesicLength=0.37870416145512065 rxn_smarts="[O:1]([c:2]1[n:3][n:4]([H:8])[c:5]([H:9])[c:6]1[H:10])[H:7]>>[O:1]([C:2]1=[C:6]=[C:5]([H:9])[N:4]([H:8])[N:3]1[H:10])[H:7]"
O        2.16913936       0.46844748       0.16991931
C        0.83600113       0.34268018       0.10607554
N        0.29349380      -0.88049772      -0.36472303
N       -0.97341322      -0.77919575       0.01094124
C       -1.25687518       0.48271877       0.47403587
C       -0.16197851       1.31368090       0.36734747
H        2.57687303      -0.37426997      -0.05270505
H       -1.60112098      -1.54467834      -0.16948399
H       -2.29316335       0.72034251       0.67568656
H        0.41104392       0.25077194      -1.21709391
10
Frame=5 idx=005551 GeodesicLength=0.4733921997452749 rxn_smarts="[O:1]([c:2]1[n:3][n:4]([H:8])[c:5]([H:9])[c:6]1[H:10])[H:7]>>[O:1]([C:2]1=[C:6]=[C:5]([H:9])[N:4]([H:8])[N:3]1[H:10])[H:7]"
O        2.17152766       0.45790000       0.18523478
C        0.83870029       0.33162227       0.12342961
N        0.29198690      -0.86856598      -0.38281786
N       -0.97546840      -0.77919871       0.00571542
C       -1.25623847       0.47971793       0.47640012
C       -0.16157085       1.30864971       0.34618583
H        2.57885335      -0.38145938      -0.05032903
H       -1.59374223      -1.55925993      -0.13869964
H       -2.29310108       0.72267327       0.66832624
H        0.39905283       0.28792082      -1.23344546
10
Frame=6 idx=005551 GeodesicLength=0.5681011306639345 rxn_smarts="[O:1]([c:2]1[n:3][n:4]([H:8])[c:5]([H:9])[c:6]1[H:10])[H:7]>>[O:1]([C:2]1=[C:6]=[C:5]([H:9])[N:4]([H:8])[N:3]1[H:10])[H:7]"
O        2.17353828       0.44712868       0.19977571
C        0.84092318       0.32022395       0.14060239
N        0.29047684      -0.85624125      -0.40051426
N       -0.97775306      -0.77914117      -0.00015448
C       -1.25590628       0.47709916       0.47740327
C       -0.16048233       1.30275754       0.32710522
H        2.58046691      -0.38894328      -0.04779819
H       -1.58447687      -1.57368754      -0.10669530
H       -2.29316010       0.72527217       0.66018444
H        0.38637343       0.32553174      -1.24990880
10
Frame=7 idx=005551 GeodesicLength=0.6627749998788944 rxn_smarts="[O:1]([c:2]1[n:3][n:4]([H:8])[c:5]([H:9])[c:6]1[H:10])[H:7]>>[O:1]([C:2]1=[C:6]=[C:5]([H:9])[N:4]([H:8])[N:3]1[H:10])[H:7]"
O        2.17506622       0.43619816       0.21346296
C        0.84265075       0.30841767       0.15770000
N        0.28902365      -0.84357176      -0.41759759
N       -0.98018419      -0.77907297      -0.00637885
C       -1.25577884       0.47472777       0.47733704
C       -0.15878679       1.29608406       0.30962931
H        2.58161108      -0.39667810      -0.04502517
H       -1.57333065      -1.58753224      -0.07407246
H       -2.29321622       0.72803493       0.65143960
H        0.37294498       0.36339249      -1.26649485
10
Frame=8 idx=005551 GeodesicLength=0.7574705789994367 rxn_smarts="[O:1]([c:2]1[n:3][n:4]([H:8])[c:5]([H:9])[c:6]1[H:10])[H:7]>>[O:1]([C:2]1=[C:6]=[C:5]([H:9])[N:4]([H:8])[N:3]1[H:10])[H:7]"
O        2.17630021       0.42532260       0.22619843
C        0.84401225       0.29620752       0.17484412
N        0.28774885      -0.83079468      -0.43373413
N       -0.98259726      -0.77928752      -0.01235047
C       -1.25579148       0.47254056       0.47649625
C       -0.15655355       1.28882125       0.29335472
H        2.58255346      -0.40458273      -0.04196552
H       -1.56075774      -1.60039379      -0.04183629
H       -2.29329157       0.73094624       0.64219018
H        0.35837682       0.40122055      -1.28319729
10
Frame=9 idx=005551 GeodesicLength=0.8521716385473233 rxn_smarts="[O:1]([c:2]1[n:3][n:4]([H:8])[c:5]([H:9])[c:6]1[H:10])[H:7]>>[O:1]([C:2]1=[C:6]=[C:5]([H:9])[N:4]([H:8])[N:3]1[H:10])[H:7]"
O        2.17728236       0.41465870       0.23799034
C        0.84507976       0.28359331       0.19218591
N        0.28676051      -0.81804433      -0.44859387
N       -0.98485038      -0.77986975      -0.01762119
C       -1.25583832       0.47049231       0.47511477
C       -0.15379798       1.28101040       0.27788939
H        2.58339187      -0.41246627      -0.03868170
H       -1.54722902      -1.61203031      -0.01082267
H       -2.29328905       0.73396945       0.63257982
H        0.34249024       0.43868649      -1.30004081
10
Frame=10 idx=005551 GeodesicLength=0.9468997448607213 rxn_smarts="[O:1]([c:2]1[n:3][n:4]([H:8])[c:5]([H:9])[c:6]1[H:10])[H:7]>>[O:1]([C:2]1=[C:6]=[C:5]([H:9])[N:4]([H:8])[N:3]1[H:10])[H:7]"
O        2.17804458       0.40430231       0.24889144
C        0.84591546       0.27060042       0.20981471
N        0.28612840      -0.80538322      -0.46209222
N       -0.98683330      -0.78085461      -0.02198835
C       -1.25580764       0.46856459       0.47337499
C       -0.15050227       1.27270564       0.26296192
H        2.58417137      -0.42028118      -0.03507409
H       -1.53307153      -1.62245304       0.01855281
H       -2.29309759       0.73710180       0.62270564
H        0.32505251       0.47569728      -1.31714684
10
Frame=11 idx=005551 GeodesicLength=1.041659460049393 rxn_smarts="[O:1]([c:2]1[n:3][n:4]([H:8])[c:5]([H:9])[c:6]1[H:10])[H:7]>>[O:1]([C:2]1=[C:6]=[C:5]([H:9])[N:4]([H:8])[N:3]1[H:10])[H:7]"
O        2.17862340       0.39425689       0.25903732
C        0.84657665       0.25721554       0.22779355
N        0.28591410      -0.79279515      -0.47432518
N       -0.98846472      -0.78222273      -0.02551511
C       -1.25561578       0.46673143       0.47134784
C       -0.14663282       1.26391360       0.24841435
H        2.58495036      -0.42803040      -0.03104639
H       -1.51851428      -1.63173562       0.04633539
H       -2.29264520       0.74032265       0.61257178
H        0.30580830       0.51234379      -1.33461355
10
Frame=12 idx=005551 GeodesicLength=1.1364413281148311 rxn_smarts="[O:1]([c:2]1[n:3][n:4]([H:8])[c:5]([H:9])[c:6]1[H:10])[H:7]>>[O:1]([C:2]1=[C:6]=[C:5]([H:9])[N:4]([H:8])[N:3]1[H:10])[H:7]"
O        2.17904672       0.38451826       0.26859117
C        0.84710608       0.24345370       0.24616574
N        0.28617503      -0.78028325      -0.48533738
N       -0.98971501      -0.78390217      -0.02829484
C       -1.25517871       0.46500914       0.46910396
C       -0.14215810       1.25466585       0.23403731
H        2.58577670      -0.43572467      -0.02648056
H       -1.50369898      -1.64004322       0.07247105
H       -2.29184224       0.74365537       0.60230292
H        0.28448851       0.54865099      -1.35255937
10
Frame=13 idx=005551 GeodesicLength=1.2312408865089464 rxn_smarts="[O:1]([c:2]1[n:3][n:4]([H:8])[c:5]([H:9])[c:6]1[H:10])[H:7]>>[O:1]([C:2]1=[C:6]=[C:5]([H:9])[N:4]([H:8])[N:3]1[H:10])[H:7]"
O        2.17933525       0.37504204       0.27778282
C        0.84753875       0.22931478       0.26495055
N        0.28697377      -0.76783688      -0.49523280
N       -0.99055248      -0.78584256      -0.03048147
C       -1.25441843       0.46339907       0.46666421
C       -0.13702661       1.24496930       0.21965961
H        2.58669912      -0.44336676      -0.02129164
H       -1.48874338      -1.64747847       0.09705597
H       -2.29060897       0.74710085       0.59198038
H        0.26080298       0.58469864      -1.37108763
10
Frame=14 idx=005551 GeodesicLength=1.3260592556256197 rxn_smarts="[O:1]([c:2]1[n:3][n:4]([H:8])[c:5]([H:9])[c:6]1[H:10])[H:7]>>[O:1]([C:2]1=[C:6]=[C:5]([H:9])[N:4]([H:8])[N:3]1[H:10])[H:7]"
O        2.17950197       0.36577863       0.28684571
C        0.84790305       0.21482140       0.28412666
N        0.28837705      -0.75545474      -0.50408901
N       -0.99093804      -0.78798885      -0.03219534
C       -1.25323698       0.46190842       0.46405646
C       -0.13118729       1.23482778       0.20507738
H        2.58775070      -0.45097107      -0.01534959
H       -1.47372783      -1.65412064       0.12009853
H       -2.28883736       0.75066498       0.58172149
H        0.23439473       0.62053409      -1.39029231
10
Frame=15 idx=005551 GeodesicLength=1.4208949362723018 rxn_smarts="[O:1]([c:2]1[n:3][n:4]([H:8])[c:5]([H:9])[c:6]1[H:10])[H:7]>>[O:1]([C:2]1=[C:6]=[C:5]([H:9])[N:4]([H:8])[N:3]1[H:10])[H:7]"
O        2.17955974       0.35664669       0.29604140
C        0.84822086       0.20000380       0.30362837
N        0.29045761      -0.74313145      -0.51200653
N       -0.99082409      -0.79028080      -0.03358154
C       -1.25153469       0.46054724       0.46127760
C       -0.12459421       1.22423819       0.19008184
H        2.58896244      -0.45857337      -0.00850781
H       -1.45868511      -1.66002726       0.14164867
H       -2.28641926       0.75435174       0.57164375
H        0.20485671       0.65622523      -1.41022576
10
Frame=16 idx=005551 GeodesicLength=1.5157389837207582 rxn_smarts="[O:1]([c:2]1[n:3][n:4]([H:8])[c:5]([H:9])[c:6]1[H:10])[H:7]>>[O:1]([C:2]1=[C:6]=[C:5]([H:9])[N:4]([H:8])[N:3]1[H:10])[H:7]"
O        2.17955345       0.34760897       0.30564279
C        0.84852727       0.18493340       0.32337494
N        0.29330695      -0.73092611      -0.51901574
N       -0.99016599      -0.79267890      -0.03472077
C       -1.24920126       0.45933928       0.45834256
C       -0.11718981       1.21321083       0.17441282
H        2.59039753      -0.46616080      -0.00063063
H       -1.44376518      -1.66524376       0.16157775
H       -2.28323786       0.75817483       0.56193931
H        0.17177489       0.69174226      -1.43092303
