13
Frame=0 idx=008539 GeodesicLength=0.0 rxn_smarts="[O:1]([C:2]1([C:6](=[O:7])[H:13])[C:3]([H:9])([H:10])[O:4][C:5]1([H:11])[H:12])[H:8]>>[O:1]([C:2](=[C:3]([H:9])[H:10])[C:6](=[O:7])[H:13])[H:8].[O:4]=[C:5]([H:11])[H:12]"
O        0.95080359       0.54661918      -1.21355991
C        0.47057104      -0.29557737      -0.23867937
C       -0.88622918      -0.79461806      -0.44112293
O       -1.84941418       0.21369015       0.09276599
C       -1.21488401       1.29023710       0.39355813
C        1.40959389      -0.76032847       0.70257145
O        2.57214451      -0.34707498       0.70712373
H        1.89074010       0.65356546      -0.97939663
H       -1.11285390      -1.68075762       0.15003415
H       -1.15502638      -0.95244401      -1.48503723
H       -0.33667465       1.63898621      -0.13752739
H       -1.79268701       1.98265729       1.00184585
H        1.05391613      -1.49495494       1.44742421
13
Frame=1 idx=008539 GeodesicLength=0.09878355224932192 rxn_smarts="[O:1]([C:2]1([C:6](=[O:7])[H:13])[C:3]([H:9])([H:10])[O:4][C:5]1([H:11])[H:12])[H:8]>>[O:1]([C:2](=[C:3]([H:9])[H:10])[C:6](=[O:7])[H:13])[H:8].[O:4]=[C:5]([H:11])[H:12]"
O        0.96075085       0.53591937      -1.22249988
C        0.46198899      -0.28059685      -0.23632791
C       -0.88221801      -0.80381049      -0.45063647
O       -1.87020912       0.22549244       0.08000100
C       -1.21335261       1.29068846       0.37933234
C        1.39359477      -0.73753657       0.72332751
O        2.56398724      -0.35285915       0.71415528
H        1.89767196       0.64567930      -0.97932069
H       -1.10494898      -1.69199684       0.13888067
H       -1.14136248      -0.96484854      -1.49655932
H       -0.38106820       1.66802218      -0.20496476
H       -1.71894525       1.94064734       1.09092317
H        1.03411084      -1.47480066       1.46368906
13
Frame=2 idx=008539 GeodesicLength=0.1973470135809361 rxn_smarts="[O:1]([C:2]1([C:6](=[O:7])[H:13])[C:3]([H:9])([H:10])[O:4][C:5]1([H:11])[H:12])[H:8]>>[O:1]([C:2](=[C:3]([H:9])[H:10])[C:6](=[O:7])[H:13])[H:8].[O:4]=[C:5]([H:11])[H:12]"
O        0.96891129       0.52723006      -1.22909579
C        0.45321908      -0.26699801      -0.23474197
C       -0.87855241      -0.81319757      -0.45893027
O       -1.89020254       0.23600621       0.07534536
C       -1.21088547       1.29042414       0.36850898
C        1.37901941      -0.71874501       0.74023814
O        2.55396890      -0.35479197       0.72381107
H        1.90245913       0.64132726      -0.97663231
H       -1.09570670      -1.70537480       0.12641045
H       -1.13097315      -0.97357457      -1.50658815
H       -0.42631731       1.69280547      -0.26445279
H       -1.64079307       1.90289937       1.15929397
H        1.01585283      -1.45801056       1.47683333
13
Frame=3 idx=008539 GeodesicLength=0.29613852776590655 rxn_smarts="[O:1]([C:2]1([C:6](=[O:7])[H:13])[C:3]([H:9])([H:10])[O:4][C:5]1([H:11])[H:12])[H:8]>>[O:1]([C:2](=[C:3]([H:9])[H:10])[C:6](=[O:7])[H:13])[H:8].[O:4]=[C:5]([H:11])[H:12]"
O        0.97582430       0.52133671      -1.23423606
C        0.44458729      -0.25439322      -0.23461752
C       -0.87466642      -0.82289846      -0.46753709
O       -1.90986369       0.24603300       0.07410308
C       -1.20798200       1.28917353       0.36064587
C        1.36561102      -0.70338668       0.75347157
O        2.54419284      -0.35806951       0.73161637
H        1.90669881       0.63748503      -0.97442335
H       -1.08522140      -1.72007245       0.11243102
H       -1.12198548      -0.98036702      -1.51686451
H       -0.47069006       1.71517914      -0.31374786
H       -1.56166104       1.86486554       1.21506123
H        0.99515583      -1.43488559       1.49409725
13
Frame=4 idx=008539 GeodesicLength=0.3949040816610717 rxn_smarts="[O:1]([C:2]1([C:6](=[O:7])[H:13])[C:3]([H:9])([H:10])[O:4][C:5]1([H:11])[H:12])[H:8]>>[O:1]([C:2](=[C:3]([H:9])[H:10])[C:6](=[O:7])[H:13])[H:8].[O:4]=[C:5]([H:11])[H:12]"
O        0.98200163       0.51597739      -1.23826025
C        0.43603819      -0.24332302      -0.23507138
C       -0.87095180      -0.83291754      -0.47538795
O       -1.92867848       0.25554805       0.07937172
C       -1.20364494       1.28752141       0.35510781
C        1.35319976      -0.69138018       0.76433402
O        2.53271500      -0.35605890       0.74321850
H        1.90992977       0.63517216      -0.97081040
H       -1.07383844      -1.73635822       0.09738997
H       -1.11560069      -0.98462589      -1.52620096
H       -0.51552960       1.73498439      -0.35771950
H       -1.48221368       1.83271031       1.25665823
H        0.97657327      -1.41724995       1.50737020
13
Frame=5 idx=008539 GeodesicLength=0.49393973231588034 rxn_smarts="[O:1]([C:2]1([C:6](=[O:7])[H:13])[C:3]([H:9])([H:10])[O:4][C:5]1([H:11])[H:12])[H:8]>>[O:1]([C:2](=[C:3]([H:9])[H:10])[C:6](=[O:7])[H:13])[H:8].[O:4]=[C:5]([H:11])[H:12]"
O        0.98749705       0.51210814      -1.24160654
C        0.42760525      -0.23287099      -0.23645502
C       -0.86695052      -0.84309355      -0.48351656
O       -1.94747705       0.26555211       0.08605847
C       -1.19913543       1.28543168       0.35099919
C        1.34145138      -0.68137280       0.77312919
O        2.52137977      -0.35431757       0.75394802
H        1.91322294       0.63193161      -0.96825422
H       -1.06162282      -1.75296958       0.08172830
H       -1.10983821      -0.98822905      -1.53566334
H       -0.55953313       1.75397134      -0.39407752
H       -1.40308886       1.79947856       1.29072157
H        0.95648964      -1.39561992       1.52298847
13
Frame=6 idx=008539 GeodesicLength=0.5930541964917175 rxn_smarts="[O:1]([C:2]1([C:6](=[O:7])[H:13])[C:3]([H:9])([H:10])[O:4][C:5]1([H:11])[H:12])[H:8]>>[O:1]([C:2](=[C:3]([H:9])[H:10])[C:6](=[O:7])[H:13])[H:8].[O:4]=[C:5]([H:11])[H:12]"
O        0.99275182       0.50858399      -1.24416105
C        0.41933953      -0.22330335      -0.23805306
C       -0.86275558      -0.85350256      -0.49124752
O       -1.96577742       0.27556145       0.09701164
C       -1.19391641       1.28323479       0.34798442
C        1.33033376      -0.67338426       0.78077031
O        2.50959699      -0.35082856       0.76601945
H        1.91611922       0.62951619      -0.96473464
H       -1.04847125      -1.77046121       0.06535328
H       -1.10541021      -0.99043535      -1.54455066
H       -0.60408464       1.77172911      -0.42614856
H       -1.32527687       1.77034348       1.31529670
H        0.93755105      -1.37705370       1.53645968
13
Frame=7 idx=008539 GeodesicLength=0.6922385304349428 rxn_smarts="[O:1]([C:2]1([C:6](=[O:7])[H:13])[C:3]([H:9])([H:10])[O:4][C:5]1([H:11])[H:12])[H:8]>>[O:1]([C:2](=[C:3]([H:9])[H:10])[C:6](=[O:7])[H:13])[H:8].[O:4]=[C:5]([H:11])[H:12]"
O        0.99784099       0.50557924      -1.24618319
C        0.41129605      -0.21430908      -0.23999140
C       -0.85816055      -0.86411254      -0.49888954
O       -1.98380416       0.28601449       0.11042879
C       -1.18826045       1.28081563       0.34591383
C        1.31968677      -0.66657573       0.78760068
O        2.49802847      -0.34763732       0.77777588
H        1.91905771       0.62691877      -0.96121162
H       -1.03433631      -1.78838102       0.04851635
H       -1.10159299      -0.99199146      -1.55315615
H       -0.64862179       1.78899082      -0.45310765
H       -1.24990339       1.74337343       1.33274278
H        0.91876967      -1.35868523       1.54956124
13
Frame=8 idx=008539 GeodesicLength=0.791514868124423 rxn_smarts="[O:1]([C:2]1([C:6](=[O:7])[H:13])[C:3]([H:9])([H:10])[O:4][C:5]1([H:11])[H:12])[H:8]>>[O:1]([C:2](=[C:3]([H:9])[H:10])[C:6](=[O:7])[H:13])[H:8].[O:4]=[C:5]([H:11])[H:12]"
O        1.00300173       0.50266325      -1.24759154
C        0.40345199      -0.20590024      -0.24197617
C       -0.85318122      -0.87493580      -0.50632351
O       -2.00139394       0.29668966       0.12736769
C       -1.18221985       1.27843782       0.34414986
C        1.30944063      -0.66103819       0.79394227
O        2.48647227      -0.34437589       0.78990185
H        1.92182317       0.62506462      -0.95669157
H       -1.01916314      -1.80689008       0.03101858
H       -1.09855935      -0.99264706      -1.56133191
H       -0.69408287       1.80553375      -0.47681606
H       -1.17632713       1.71997187       1.34315707
H        0.90073770      -1.34257372       1.56119344
13
Frame=9 idx=008539 GeodesicLength=0.8909212142455674 rxn_smarts="[O:1]([C:2]1([C:6](=[O:7])[H:13])[C:3]([H:9])([H:10])[O:4][C:5]1([H:11])[H:12])[H:8]>>[O:1]([C:2](=[C:3]([H:9])[H:10])[C:6](=[O:7])[H:13])[H:8].[O:4]=[C:5]([H:11])[H:12]"
O        1.00810174       0.49977640      -1.24899221
C        0.39578036      -0.19801671      -0.24450278
C       -0.84783263      -0.88596893      -0.51390143
O       -2.01883810       0.30839980       0.14551868
C       -1.17578432       1.27585773       0.34292887
C        1.29950023      -0.65634446       0.79951059
O        2.47470301      -0.34015113       0.80236046
H        1.92497864       0.62177313      -0.95311613
H       -1.00323030      -1.82546288       0.01323662
H       -1.09592055      -0.99328069      -1.56937833
H       -0.73897126       1.82234261      -0.49536533
H       -1.10505412       1.69698807       1.34895910
H        0.88256729      -1.32591294       1.57274189
13
Frame=10 idx=008539 GeodesicLength=0.9903614309922686 rxn_smarts="[O:1]([C:2]1([C:6](=[O:7])[H:13])[C:3]([H:9])([H:10])[O:4][C:5]1([H:11])[H:12])[H:8]>>[O:1]([C:2](=[C:3]([H:9])[H:10])[C:6](=[O:7])[H:13])[H:8].[O:4]=[C:5]([H:11])[H:12]"
O        1.01348160       0.49674210      -1.24994255
C        0.38832927      -0.19058608      -0.24705160
C       -0.84197893      -0.89724331      -0.52142204
O       -2.03580209       0.32047878       0.16694697
C       -1.16911157       1.27332998       0.34161314
C        1.28978468      -0.65241218       0.80496939
O        2.46313313      -0.33672488       0.81473168
H        1.92812659       0.61905602      -0.94859917
H       -0.98612899      -1.84453220      -0.00528894
H       -1.09381019      -0.99326534      -1.57709745
H       -0.78491013       1.83874279      -0.51108687
H       -1.03598983       1.67742226       1.34904850
H        0.86487648      -1.31100795       1.58317894
13
Frame=11 idx=008539 GeodesicLength=1.0898276157004723 rxn_smarts="[O:1]([C:2]1([C:6](=[O:7])[H:13])[C:3]([H:9])([H:10])[O:4][C:5]1([H:11])[H:12])[H:8]>>[O:1]([C:2](=[C:3]([H:9])[H:10])[C:6](=[O:7])[H:13])[H:8].[O:4]=[C:5]([H:11])[H:12]"
O        1.01914922       0.49343470      -1.25069300
C        0.38108744      -0.18360323      -0.24980908
C       -0.83561783      -0.90878427      -0.52903410
O       -2.05230866       0.33324563       0.19100911
C       -1.16217962       1.27077020       0.34017298
C        1.28020198      -0.64900558       0.81029798
O        2.45160952      -0.33364204       0.82715512
H        1.93146307       0.61619364      -0.94375547
H       -0.96792883      -1.86392989      -0.02447066
H       -1.09211389      -0.99294070      -1.58459632
H       -0.83147983       1.85506121      -0.52347931
H       -0.96929968       1.66039760       1.34439100
H        0.84741710      -1.29719727       1.59281176
13
Frame=12 idx=008539 GeodesicLength=1.189312746532253 rxn_smarts="[O:1]([C:2]1([C:6](=[O:7])[H:13])[C:3]([H:9])([H:10])[O:4][C:5]1([H:11])[H:12])[H:8]>>[O:1]([C:2](=[C:3]([H:9])[H:10])[C:6](=[O:7])[H:13])[H:8].[O:4]=[C:5]([H:11])[H:12]"
O        1.02518801       0.48972296      -1.25126460
C        0.37404229      -0.17706352      -0.25276688
C       -0.82873327      -0.92061196      -0.53678893
O       -2.06824714       0.34674895       0.21792622
C       -1.15504942       1.26821600       0.33837268
C        1.27066643      -0.64604224       0.81559857
O        2.44005840      -0.33088376       0.83975152
H        1.93498050       0.61328528      -0.93844197
H       -0.94858229      -1.88365961      -0.04440954
H       -1.09083430      -0.99233408      -1.59188821
H       -0.87888275       1.87128282      -0.53283821
H       -0.90477235       1.64604603       1.33518768
H        0.83016589      -1.28470687       1.60156166
13
Frame=13 idx=008539 GeodesicLength=1.2888300005250122 rxn_smarts="[O:1]([C:2]1([C:6](=[O:7])[H:13])[C:3]([H:9])([H:10])[O:4][C:5]1([H:11])[H:12])[H:8]>>[O:1]([C:2](=[C:3]([H:9])[H:10])[C:6](=[O:7])[H:13])[H:8].[O:4]=[C:5]([H:11])[H:12]"
O        1.03156765       0.48543230      -1.25195211
C        0.36716847      -0.17101571      -0.25614893
C       -0.82134694      -0.93280173      -0.54482128
O       -2.08364798       0.36133262       0.24704888
C       -1.14767761       1.26554824       0.33624394
C        1.26112625      -0.64342104       0.82072913
O        2.42821126      -0.32760770       0.85281450
H        1.93883967       0.60958785      -0.93330368
H       -0.92815982      -1.90363592      -0.06502188
H       -1.08992459      -0.99180327      -1.59907307
H       -0.92650474       1.88786140      -0.53846940
H       -0.84254472       1.63338950       1.32226982
H        0.81289309      -1.27286652       1.60968409
13
Frame=14 idx=008539 GeodesicLength=1.388366446417145 rxn_smarts="[O:1]([C:2]1([C:6](=[O:7])[H:13])[C:3]([H:9])([H:10])[O:4][C:5]1([H:11])[H:12])[H:8]>>[O:1]([C:2](=[C:3]([H:9])[H:10])[C:6](=[O:7])[H:13])[H:8].[O:4]=[C:5]([H:11])[H:12]"
O        1.03840887       0.48048896      -1.25262644
C        0.36045720      -0.16544081      -0.25985662
C       -0.81342004      -0.94536657      -0.55314966
O       -2.09828381       0.37692665       0.27908610
C       -1.14019276       1.26285153       0.33345950
C        1.25148226      -0.64110193       0.82587268
O        2.41608581      -0.32423414       0.86632558
H        1.94293995       0.60562207      -0.92781444
H       -0.90653319      -1.92393328      -0.08651064
H       -1.08941738      -0.99122284      -1.60613075
H       -0.97485631       1.90455700      -0.54096238
H       -0.78228867       1.62306685       1.30531213
H        0.79561806      -1.26221348       1.61699493
13
Frame=15 idx=008539 GeodesicLength=1.4879433231756112 rxn_smarts="[O:1]([C:2]1([C:6](=[O:7])[H:13])[C:3]([H:9])([H:10])[O:4][C:5]1([H:11])[H:12])[H:8]>>[O:1]([C:2](=[C:3]([H:9])[H:10])[C:6](=[O:7])[H:13])[H:8].[O:4]=[C:5]([H:11])[H:12]"
O        1.04575249       0.47478378      -1.25334232
C        0.35388858      -0.16037851      -0.26396387
C       -0.80495222      -0.95835683      -0.56186272
O       -2.11197285       0.39367466       0.31421353
C       -1.13264125       1.26009681       0.32987264
C        1.24165402      -0.63907447       0.83102118
O        2.40348959      -0.32042481       0.88051526
H        1.94729740       0.60129932      -0.92199794
H       -0.88366990      -1.94456253      -0.10898140
H       -1.08933480      -0.99068020      -1.61310463
H       -1.02391727       1.92142028      -0.54022250
H       -0.72382091       1.61495597       1.28436257
H        0.77822711      -1.25275347       1.62349019
13
Frame=16 idx=008539 GeodesicLength=1.5875746157685915 rxn_smarts="[O:1]([C:2]1([C:6](=[O:7])[H:13])[C:3]([H:9])([H:10])[O:4][C:5]1([H:11])[H:12])[H:8]>>[O:1]([C:2](=[C:3]([H:9])[H:10])[C:6](=[O:7])[H:13])[H:8].[O:4]=[C:5]([H:11])[H:12]"
O        1.05360038       0.46821292      -1.25420655
C        0.34743361      -0.15586012      -0.26858031
C       -0.79593435      -0.97184975      -0.57104828
O       -2.12457917       0.41180954       0.35234532
C       -1.12508597       1.25721497       0.32538970
C        1.23156411      -0.63726082       0.83614359
O        2.39022409      -0.31577580       0.89554510
H        1.95195480       0.59636412      -0.91604614
H       -0.85952991      -1.96552156      -0.13245574
H       -1.08965530      -0.99038434      -1.62004337
H       -1.07340683       1.93866643      -0.53587721
H       -0.66717339       1.60867368       1.25960555
H        0.76058793      -1.24428926       1.62922835
